*SPEF "ieee 1481-1999"
*DESIGN "top"
*DATE "12:33:39 Friday April 19, 2024"
*VENDOR "The OpenROAD Project"
*PROGRAM "OpenROAD"
*VERSION "0889970d1790a2617e69f253221b8bd7626e51dc"
*DESIGN_FLOW "NAME_SCOPE LOCAL" "PIN_CAP NONE"
*DIVIDER /
*DELIMITER :
*BUS_DELIMITER []
*T_UNIT 1 NS
*C_UNIT 1 PF
*R_UNIT 1 OHM
*L_UNIT 1 HENRY

*NAME_MAP
*3 clk
*4 count_out[0]
*5 count_out[1]
*6 count_out[2]
*7 count_out[3]
*8 count_out[4]
*9 count_out[5]
*10 count_out[6]
*11 data_in
*12 ready
*13 rst
*14 running
*15 start
*16 temp_reset
*17 _000_
*18 _001_
*19 _002_
*20 _003_
*21 _004_
*22 _005_
*23 _006_
*24 _007_
*25 _008_
*26 _009_
*27 _010_
*28 _011_
*29 _012_
*30 _013_
*31 _014_
*32 _015_
*33 _016_
*34 _017_
*35 _018_
*36 _019_
*37 _020_
*38 _021_
*39 _022_
*40 _023_
*41 _024_
*42 _025_
*43 _026_
*44 _027_
*45 _028_
*46 _029_
*47 _030_
*48 _031_
*49 _032_
*50 _033_
*51 _034_
*52 _035_
*53 _036_
*54 _037_
*55 _038_
*56 _039_
*57 _040_
*58 _041_
*59 _042_
*60 _043_
*61 _044_
*62 _045_
*63 _046_
*64 _047_
*65 _048_
*66 clknet_0_clk
*67 clknet_1_0__leaf_clk
*68 clknet_1_1__leaf_clk
*69 controller_inst\.clear
*70 data_counter_inst\.inc
*71 data_edge_detector_inst\.input_buffer\[0\]
*72 data_edge_detector_inst\.input_buffer\[1\]
*73 data_edge_detector_inst\.reset_counter\[0\]
*74 data_edge_detector_inst\.reset_counter\[1\]
*75 data_edge_detector_inst\.state\[0\]
*76 net1
*77 net10
*78 net11
*79 net12
*80 net13
*81 net14
*82 net15
*83 net16
*84 net17
*85 net18
*86 net19
*87 net2
*88 net20
*89 net21
*90 net22
*91 net23
*92 net24
*93 net25
*94 net26
*95 net27
*96 net3
*97 net4
*98 net5
*99 net6
*100 net7
*101 net8
*102 net9
*103 FILLER_0_0_15
*104 FILLER_0_0_21
*105 FILLER_0_0_29
*106 FILLER_0_0_3
*107 FILLER_0_0_38
*108 FILLER_0_0_55
*109 FILLER_0_0_57
*110 FILLER_0_0_69
*111 FILLER_0_0_81
*112 FILLER_0_10_3
*113 FILLER_0_10_43
*114 FILLER_0_10_66
*115 FILLER_0_10_78
*116 FILLER_0_11_35
*117 FILLER_0_11_51
*118 FILLER_0_11_55
*119 FILLER_0_11_7
*120 FILLER_0_11_73
*121 FILLER_0_11_81
*122 FILLER_0_12_29
*123 FILLER_0_12_3
*124 FILLER_0_12_35
*125 FILLER_0_12_71
*126 FILLER_0_12_79
*127 FILLER_0_13_15
*128 FILLER_0_13_27
*129 FILLER_0_13_29
*130 FILLER_0_13_3
*131 FILLER_0_13_37
*132 FILLER_0_13_50
*133 FILLER_0_13_57
*134 FILLER_0_13_67
*135 FILLER_0_13_79
*136 FILLER_0_1_11
*137 FILLER_0_1_3
*138 FILLER_0_1_53
*139 FILLER_0_1_57
*140 FILLER_0_1_61
*141 FILLER_0_1_78
*142 FILLER_0_2_26
*143 FILLER_0_2_53
*144 FILLER_0_2_69
*145 FILLER_0_2_77
*146 FILLER_0_3_15
*147 FILLER_0_3_27
*148 FILLER_0_3_3
*149 FILLER_0_3_35
*150 FILLER_0_3_50
*151 FILLER_0_3_57
*152 FILLER_0_3_70
*153 FILLER_0_3_81
*154 FILLER_0_4_19
*155 FILLER_0_4_27
*156 FILLER_0_4_29
*157 FILLER_0_4_52
*158 FILLER_0_5_46
*159 FILLER_0_5_54
*160 FILLER_0_5_57
*161 FILLER_0_5_71
*162 FILLER_0_6_23
*163 FILLER_0_6_27
*164 FILLER_0_6_32
*165 FILLER_0_6_41
*166 FILLER_0_6_45
*167 FILLER_0_6_53
*168 FILLER_0_6_6
*169 FILLER_0_6_64
*170 FILLER_0_7_22
*171 FILLER_0_7_3
*172 FILLER_0_7_34
*173 FILLER_0_7_55
*174 FILLER_0_7_64
*175 FILLER_0_7_7
*176 FILLER_0_7_81
*177 FILLER_0_8_19
*178 FILLER_0_8_53
*179 FILLER_0_8_70
*180 FILLER_0_9_57
*181 FILLER_0_9_69
*182 FILLER_0_9_7
*183 FILLER_0_9_77
*184 PHY_EDGE_ROW_0_Left_14
*185 PHY_EDGE_ROW_0_Right_0
*186 PHY_EDGE_ROW_10_Left_24
*187 PHY_EDGE_ROW_10_Right_10
*188 PHY_EDGE_ROW_11_Left_25
*189 PHY_EDGE_ROW_11_Right_11
*190 PHY_EDGE_ROW_12_Left_26
*191 PHY_EDGE_ROW_12_Right_12
*192 PHY_EDGE_ROW_13_Left_27
*193 PHY_EDGE_ROW_13_Right_13
*194 PHY_EDGE_ROW_1_Left_15
*195 PHY_EDGE_ROW_1_Right_1
*196 PHY_EDGE_ROW_2_Left_16
*197 PHY_EDGE_ROW_2_Right_2
*198 PHY_EDGE_ROW_3_Left_17
*199 PHY_EDGE_ROW_3_Right_3
*200 PHY_EDGE_ROW_4_Left_18
*201 PHY_EDGE_ROW_4_Right_4
*202 PHY_EDGE_ROW_5_Left_19
*203 PHY_EDGE_ROW_5_Right_5
*204 PHY_EDGE_ROW_6_Left_20
*205 PHY_EDGE_ROW_6_Right_6
*206 PHY_EDGE_ROW_7_Left_21
*207 PHY_EDGE_ROW_7_Right_7
*208 PHY_EDGE_ROW_8_Left_22
*209 PHY_EDGE_ROW_8_Right_8
*210 PHY_EDGE_ROW_9_Left_23
*211 PHY_EDGE_ROW_9_Right_9
*212 TAP_TAPCELL_ROW_0_28
*213 TAP_TAPCELL_ROW_0_29
*214 TAP_TAPCELL_ROW_10_39
*215 TAP_TAPCELL_ROW_11_40
*216 TAP_TAPCELL_ROW_12_41
*217 TAP_TAPCELL_ROW_13_42
*218 TAP_TAPCELL_ROW_13_43
*219 TAP_TAPCELL_ROW_1_30
*220 TAP_TAPCELL_ROW_2_31
*221 TAP_TAPCELL_ROW_3_32
*222 TAP_TAPCELL_ROW_4_33
*223 TAP_TAPCELL_ROW_5_34
*224 TAP_TAPCELL_ROW_6_35
*225 TAP_TAPCELL_ROW_7_36
*226 TAP_TAPCELL_ROW_8_37
*227 TAP_TAPCELL_ROW_9_38
*228 _049_
*229 _050_
*230 _051_
*231 _052_
*232 _053_
*233 _054_
*234 _055_
*235 _056_
*236 _057_
*237 _058_
*238 _059_
*239 _060_
*240 _061_
*241 _062_
*242 _063_
*243 _064_
*244 _065_
*245 _066_
*246 _067_
*247 _068_
*248 _069_
*249 _070_
*250 _071_
*251 _072_
*252 _073_
*253 _074_
*254 _075_
*255 _076_
*256 _077_
*257 _078_
*258 _079_
*259 _080_
*260 _081_
*261 _082_
*262 _083_
*263 _084_
*264 _085_
*265 _086_
*266 _087_
*267 _088_
*268 _089_
*269 _090_
*270 _091_
*271 _092_
*272 _093_
*273 _094_
*274 _095_
*275 _096_
*276 _097_
*277 _098_
*278 _099_
*279 _100_
*280 _101_
*281 _102_
*282 _103_
*283 _104_
*284 _105_
*285 _106_
*286 _107_
*287 _108_
*288 _109_
*289 _110_
*290 _111_
*291 _112_
*292 _113_
*293 _114_
*294 clkbuf_0_clk
*295 clkbuf_1_0__f_clk
*296 clkbuf_1_1__f_clk
*297 hold1
*298 hold10
*299 hold11
*300 hold12
*301 hold13
*302 hold14
*303 hold2
*304 hold3
*305 hold4
*306 hold5
*307 hold6
*308 hold7
*309 hold8
*310 hold9
*311 input1
*312 input2
*313 input3
*314 output10
*315 output11
*316 output12
*317 output13
*318 output4
*319 output5
*320 output6
*321 output7
*322 output8
*323 output9

*PORTS
clk I
count_out[0] O
count_out[1] O
count_out[2] O
count_out[3] O
count_out[4] O
count_out[5] O
count_out[6] O
data_in I
ready O
rst I
running O
start I
temp_reset O

*D_NET *3 0.00267094
*CONN
*P clk I
*I *294:A I *D sky130_fd_sc_hd__clkbuf_16
*CAP
1 clk 0.00133547
2 *294:A 0
3 *3:13 0.00133547
4 *3:13 *234:B 0
5 *3:13 *235:B 0
6 *3:13 *247:A 0
7 *3:13 *312:A 0
8 *3:13 *36:10 0
9 *3:13 *37:55 0
10 *3:13 *39:14 0
11 *3:13 *43:20 0
12 *3:13 *66:14 0
13 *3:13 *70:28 0
*RES
1 clk *3:13 42.2501 
2 *3:13 *294:A 23 
*END

*D_NET *4 0.00127007
*CONN
*P count_out[0] O
*I *318:X O *D sky130_fd_sc_hd__buf_2
*CAP
1 count_out[0] 0.000311182
2 *318:X 0.000323854
3 *4:8 0.000635037
4 count_out[0] count_out[1] 0
5 *4:8 *259:A 0
6 *4:8 *259:C 0
7 *4:8 *259:D 0
8 *4:8 *318:A 0
9 *4:8 *319:A 0
10 *4:8 *54:10 0
*RES
1 *318:X *4:8 45.7679 
2 *4:8 count_out[0] 9.40429 
*END

*D_NET *5 0.000706993
*CONN
*P count_out[1] O
*I *319:X O *D sky130_fd_sc_hd__buf_2
*CAP
1 count_out[1] 0.000353496
2 *319:X 0.000353496
3 count_out[1] *97:31 0
4 count_out[0] count_out[1] 0
*RES
1 *319:X count_out[1] 48.4814 
*END

*D_NET *6 0.000478772
*CONN
*P count_out[2] O
*I *320:X O *D sky130_fd_sc_hd__buf_2
*CAP
1 count_out[2] 0.000239386
2 *320:X 0.000239386
3 count_out[2] count_out[3] 0
4 count_out[2] count_out[4] 0
5 count_out[2] *320:A 0
6 count_out[2] *99:8 0
*RES
1 *320:X count_out[2] 49.1918 
*END

*D_NET *7 0.000432145
*CONN
*P count_out[3] O
*I *321:X O *D sky130_fd_sc_hd__buf_2
*CAP
1 count_out[3] 0.000216072
2 *321:X 0.000216072
3 count_out[3] *100:71 0
4 count_out[2] count_out[3] 0
*RES
1 *321:X count_out[3] 48.4875 
*END

*D_NET *8 0.000385484
*CONN
*P count_out[4] O
*I *322:X O *D sky130_fd_sc_hd__buf_2
*CAP
1 count_out[4] 0.000192742
2 *322:X 0.000192742
3 count_out[4] count_out[6] 0
4 count_out[4] *322:A 0
5 count_out[2] count_out[4] 0
*RES
1 *322:X count_out[4] 47.7832 
*END

*D_NET *9 0.000385518
*CONN
*P count_out[5] O
*I *323:X O *D sky130_fd_sc_hd__buf_2
*CAP
1 count_out[5] 0.000192759
2 *323:X 0.000192759
3 count_out[5] count_out[6] 0
*RES
1 *323:X count_out[5] 47.7832 
*END

*D_NET *10 0.000529436
*CONN
*P count_out[6] O
*I *314:X O *D sky130_fd_sc_hd__buf_2
*CAP
1 count_out[6] 0.000264718
2 *314:X 0.000264718
3 count_out[6] *314:A 0
4 count_out[4] count_out[6] 0
5 count_out[5] count_out[6] 0
*RES
1 *314:X count_out[6] 48.1267 
*END

*D_NET *11 0.000902138
*CONN
*P data_in I
*I *311:A I *D sky130_fd_sc_hd__clkbuf_1
*CAP
1 data_in 0.000451069
2 *311:A 0
3 *11:15 0.000451069
4 *11:15 *39:44 0
*RES
1 data_in *11:15 28.0707 
2 *11:15 *311:A 23 
*END

*D_NET *12 0.000421506
*CONN
*P ready O
*I *315:X O *D sky130_fd_sc_hd__buf_2
*CAP
1 ready 0.000210753
2 *315:X 0.000210753
3 ready *313:A 0
4 ready *78:10 0
*RES
1 *315:X ready 47.8691 
*END

*D_NET *13 0.000444751
*CONN
*P rst I
*I *312:A I *D sky130_fd_sc_hd__clkbuf_2
*CAP
1 rst 0.000222376
2 *312:A 0.000222376
3 *312:A temp_reset 0
4 *312:A *26:10 0
5 *3:13 *312:A 0
*RES
1 rst *312:A 48.2212 
*END

*D_NET *14 0.000620048
*CONN
*P running O
*I *316:X O *D sky130_fd_sc_hd__buf_2
*CAP
1 running 0.000310024
2 *316:X 0.000310024
3 running *79:44 0
*RES
1 *316:X running 47.0936 
*END

*D_NET *15 0.000385449
*CONN
*P start I
*I *313:A I *D sky130_fd_sc_hd__buf_1
*CAP
1 start 0.000192725
2 *313:A 0.000192725
3 *313:A *240:B1 0
4 *313:A *37:39 0
5 *313:A *43:28 0
6 ready *313:A 0
*RES
1 start *313:A 47.7832 
*END

*D_NET *16 0.000407013
*CONN
*P temp_reset O
*I *317:X O *D sky130_fd_sc_hd__buf_2
*CAP
1 temp_reset 0.000203507
2 *317:X 0.000203507
3 *312:A temp_reset 0
*RES
1 *317:X temp_reset 49.6532 
*END

*D_NET *17 0.000383061
*CONN
*I *282:D I *D sky130_fd_sc_hd__dfxtp_1
*I *233:X O *D sky130_fd_sc_hd__and3_1
*CAP
1 *282:D 4.72733e-05
2 *233:X 0.000144257
3 *17:12 0.000191531
4 *282:D *20:8 0
5 *17:12 *232:A 0
6 *17:12 *233:B 0
7 *17:12 *19:10 0
8 *17:12 *37:39 0
9 *17:12 *84:8 0
10 *17:12 *87:43 0
*RES
1 *233:X *17:12 42.0807 
2 *17:12 *282:D 39.1445 
*END

*D_NET *18 0.000694608
*CONN
*I *279:D I *D sky130_fd_sc_hd__dfxtp_1
*I *235:X O *D sky130_fd_sc_hd__and3b_1
*CAP
1 *279:D 8.66321e-05
2 *235:X 0.000260672
3 *18:10 0.000347304
4 *18:10 *245:A1 0
5 *18:10 *66:14 0
6 *18:10 *68:10 0
7 *18:10 *82:14 0
*RES
1 *235:X *18:10 45.25 
2 *18:10 *279:D 40.0973 
*END

*D_NET *19 0.000560589
*CONN
*I *280:D I *D sky130_fd_sc_hd__dfxtp_1
*I *240:X O *D sky130_fd_sc_hd__a221o_1
*CAP
1 *280:D 6.69527e-05
2 *240:X 0.000213342
3 *19:10 0.000280294
4 *280:D *241:B1 0
5 *19:10 *240:B1 0
6 *19:10 *282:CLK 0
7 *19:10 *37:39 0
8 *19:10 *84:8 0
9 *17:12 *19:10 0
*RES
1 *240:X *19:10 44.1729 
2 *19:10 *280:D 39.6209 
*END

*D_NET *20 0.00119703
*CONN
*I *281:D I *D sky130_fd_sc_hd__dfxtp_1
*I *242:X O *D sky130_fd_sc_hd__o21a_1
*CAP
1 *281:D 0.000336695
2 *242:X 0.000261822
3 *20:8 0.000598516
4 *281:D *254:A 0
5 *281:D *282:CLK 0
6 *281:D *27:10 0
7 *281:D *67:10 0
8 *281:D *67:18 0
9 *281:D *67:31 0
10 *281:D *79:34 0
11 *20:8 *69:10 0
12 *282:D *20:8 0
*RES
1 *242:X *20:8 44.3386 
2 *20:8 *281:D 47.658 
*END

*D_NET *21 0.000492306
*CONN
*I *298:A I *D sky130_fd_sc_hd__dlygate4sd3_1
*I *246:X O *D sky130_fd_sc_hd__a311o_1
*CAP
1 *298:A 0
2 *246:X 0.000246153
3 *21:10 0.000246153
4 *21:10 *246:C1 0
5 *21:10 *87:76 0
6 *21:10 *87:86 0
7 *21:10 *90:29 0
8 *21:10 *91:8 0
*RES
1 *246:X *21:10 44.3386 
2 *21:10 *298:A 38 
*END

*D_NET *22 0.0001974
*CONN
*I *278:D I *D sky130_fd_sc_hd__dfxtp_1
*I *244:X O *D sky130_fd_sc_hd__o21a_1
*CAP
1 *278:D 4.72733e-05
2 *244:X 5.14266e-05
3 *22:8 9.86999e-05
4 *278:D *278:CLK 0
5 *22:8 *45:21 0
6 *22:8 *87:14 0
*RES
1 *244:X *22:8 39.5536 
2 *22:8 *278:D 39.1445 
*END

*D_NET *23 0.000706217
*CONN
*I *283:D I *D sky130_fd_sc_hd__dfxtp_1
*I *248:X O *D sky130_fd_sc_hd__a22o_1
*CAP
1 *283:D 0.000313373
2 *248:X 3.97356e-05
3 *23:8 0.000353109
4 *283:D *71:8 0
5 *23:8 *39:44 0
*RES
1 *248:X *23:8 39.2014 
2 *23:8 *283:D 45.5866 
*END

*D_NET *24 0.00064981
*CONN
*I *304:A I *D sky130_fd_sc_hd__dlygate4sd3_1
*I *249:X O *D sky130_fd_sc_hd__a22o_1
*CAP
1 *304:A 0
2 *249:X 0.000324905
3 *24:10 0.000324905
4 *24:10 *283:CLK 0
5 *24:10 *284:CLK 0
6 *24:10 *82:14 0
7 *24:10 *83:10 0
*RES
1 *249:X *24:10 46.2443 
2 *24:10 *304:A 38 
*END

*D_NET *25 0.00102675
*CONN
*I *300:A I *D sky130_fd_sc_hd__dlygate4sd3_1
*I *252:X O *D sky130_fd_sc_hd__o211a_1
*CAP
1 *300:A 0
2 *252:X 0.000513376
3 *25:8 0.000513376
4 *25:8 *285:D 0
5 *25:8 *68:46 0
6 *25:8 *68:52 0
*RES
1 *252:X *25:8 35.4286 
2 *25:8 *300:A 23 
*END

*D_NET *26 0.000356527
*CONN
*I *286:D I *D sky130_fd_sc_hd__dfxtp_1
*I *253:Y O *D sky130_fd_sc_hd__a211oi_1
*CAP
1 *286:D 7.91454e-06
2 *253:Y 0.000170349
3 *26:10 0.000178263
4 *26:10 *246:A3 0
5 *26:10 *253:B1 0
6 *26:10 *286:CLK 0
7 *312:A *26:10 0
*RES
1 *253:Y *26:10 42.9921 
2 *26:10 *286:D 38.1916 
*END

*D_NET *27 0.000501998
*CONN
*I *287:D I *D sky130_fd_sc_hd__dfxtp_1
*I *257:Y O *D sky130_fd_sc_hd__a21oi_1
*CAP
1 *287:D 0.000146526
2 *257:Y 0.000104473
3 *27:10 0.000250999
4 *287:D *258:A2 0
5 *27:10 *256:A1 0
6 *27:10 *257:A1 0
7 *27:10 *34:8 0
8 *27:10 *50:17 0
9 *27:10 *67:18 0
10 *27:10 *79:38 0
11 *281:D *27:10 0
*RES
1 *257:Y *27:10 40.9777 
2 *27:10 *287:D 41.5473 
*END

*D_NET *28 0.000526911
*CONN
*I *288:D I *D sky130_fd_sc_hd__dfxtp_1
*I *260:X O *D sky130_fd_sc_hd__and3b_1
*CAP
1 *288:D 7.91454e-06
2 *260:X 0.000255541
3 *28:10 0.000263455
4 *28:10 *41:22 0
5 *28:10 *50:38 0
6 *28:10 *51:36 0
7 *28:10 *53:10 0
*RES
1 *260:X *28:10 45.1257 
2 *28:10 *288:D 38.1916 
*END

*D_NET *29 0.000158041
*CONN
*I *289:D I *D sky130_fd_sc_hd__dfxtp_1
*I *264:X O *D sky130_fd_sc_hd__and3_1
*CAP
1 *289:D 2.75939e-05
2 *264:X 5.14266e-05
3 *29:8 7.90205e-05
4 *289:D *101:27 0
5 *29:8 *322:A 0
6 *29:8 *56:10 0
*RES
1 *264:X *29:8 39.5536 
2 *29:8 *289:D 38.668 
*END

*D_NET *30 0.000909223
*CONN
*I *290:D I *D sky130_fd_sc_hd__dfxtp_1
*I *267:X O *D sky130_fd_sc_hd__and3_1
*CAP
1 *290:D 7.80759e-05
2 *267:X 0.000376536
3 *30:10 0.000454611
4 *30:10 *267:B 0
5 *30:10 *58:8 0
6 *30:10 *66:14 0
7 *30:10 *66:27 0
8 *30:10 *68:20 0
9 *30:10 *99:24 0
10 *30:10 *100:23 0
*RES
1 *267:X *30:10 49.1029 
2 *30:10 *290:D 39.8902 
*END

*D_NET *31 0.00094657
*CONN
*I *291:D I *D sky130_fd_sc_hd__dfxtp_1
*I *271:X O *D sky130_fd_sc_hd__and3_1
*CAP
1 *291:D 8.04288e-05
2 *271:X 0.000392856
3 *31:10 0.000473285
4 *291:D *291:CLK 0
5 *291:D *99:14 0
6 *31:10 *263:A 0
7 *31:10 *271:C 0
8 *31:10 *54:49 0
9 *31:10 *54:53 0
10 *31:10 *56:10 0
11 *31:10 *99:57 0
*RES
1 *271:X *31:10 48.4607 
2 *31:10 *291:D 39.9471 
*END

*D_NET *32 0.000198472
*CONN
*I *292:D I *D sky130_fd_sc_hd__dfxtp_1
*I *274:X O *D sky130_fd_sc_hd__and3_1
*CAP
1 *292:D 5.9466e-05
2 *274:X 3.97699e-05
3 *32:8 9.92359e-05
4 *292:D *292:CLK 0
5 *292:D *67:70 0
6 *32:8 *67:70 0
*RES
1 *274:X *32:8 39.2014 
2 *32:8 *292:D 39.3671 
*END

*D_NET *33 0.000203211
*CONN
*I *293:D I *D sky130_fd_sc_hd__dfxtp_1
*I *276:X O *D sky130_fd_sc_hd__o211a_1
*CAP
1 *293:D 0.000101606
2 *276:X 0.000101606
3 *293:D *293:CLK 0
4 *293:D *55:23 0
*RES
1 *276:X *293:D 48.5323 
*END

*D_NET *34 0.000582384
*CONN
*I *256:A1 I *D sky130_fd_sc_hd__o21ai_1
*I *257:A1 I *D sky130_fd_sc_hd__a21oi_1
*I *228:Y O *D sky130_fd_sc_hd__inv_2
*CAP
1 *256:A1 9.07409e-05
2 *257:A1 6.50276e-05
3 *228:Y 0.000135423
4 *34:8 0.000291192
5 *256:A1 *257:B1 0
6 *256:A1 *50:17 0
7 *257:A1 *257:B1 0
8 *257:A1 *50:17 0
9 *34:8 *70:45 0
10 *34:8 *79:38 0
11 *34:8 *79:44 0
12 *34:8 *97:16 0
13 *27:10 *256:A1 0
14 *27:10 *257:A1 0
15 *27:10 *34:8 0
*RES
1 *228:Y *34:8 42.0186 
2 *34:8 *257:A1 39.5743 
3 *34:8 *256:A1 40.4236 
*END

*D_NET *35 0.000491985
*CONN
*I *253:A1 I *D sky130_fd_sc_hd__a211oi_1
*I *229:Y O *D sky130_fd_sc_hd__inv_2
*CAP
1 *253:A1 0
2 *229:Y 0.000245992
3 *35:8 0.000245992
4 *35:8 *229:A 0
5 *35:8 *253:A2 0
6 *35:8 *253:B1 0
7 *35:8 *48:12 0
8 *35:8 *85:6 0
9 *35:8 *90:29 0
*RES
1 *229:Y *35:8 28.8829 
2 *35:8 *253:A1 23 
*END

*D_NET *36 0.000452034
*CONN
*I *245:A2 I *D sky130_fd_sc_hd__o21a_1
*I *230:Y O *D sky130_fd_sc_hd__inv_2
*CAP
1 *245:A2 6.50276e-05
2 *230:Y 0.000160989
3 *36:10 0.000226017
4 *245:A2 *46:12 0
5 *36:10 *47:8 0
6 *3:13 *36:10 0
*RES
1 *230:Y *36:10 42.64 
2 *36:10 *245:A2 39.5743 
*END

*D_NET *37 0.00322163
*CONN
*I *234:B I *D sky130_fd_sc_hd__and2_1
*I *252:B1 I *D sky130_fd_sc_hd__o211a_1
*I *233:A I *D sky130_fd_sc_hd__and3_1
*I *244:B1 I *D sky130_fd_sc_hd__o21a_1
*I *242:B1 I *D sky130_fd_sc_hd__o21a_1
*I *231:Y O *D sky130_fd_sc_hd__inv_2
*CAP
1 *234:B 0.000135345
2 *252:B1 0.000354657
3 *233:A 0
4 *244:B1 0
5 *242:B1 8.87006e-05
6 *231:Y 8.4707e-05
7 *37:55 0.000726851
8 *37:39 0.00026094
9 *37:27 0.000651105
10 *37:10 0.000538315
11 *37:6 0.000381005
12 *234:B *309:A 0
13 *252:B1 *278:CLK 0
14 *252:B1 *68:52 0
15 *252:B1 *73:10 0
16 *252:B1 *80:64 0
17 *37:6 *87:53 0
18 *37:10 *70:28 0
19 *37:27 *233:C 0
20 *37:27 *38:12 0
21 *37:27 *87:43 0
22 *37:27 *87:53 0
23 *37:39 *233:C 0
24 *37:39 *240:A2 0
25 *37:39 *240:B1 0
26 *37:39 *299:A 0
27 *37:39 *38:12 0
28 *37:39 *43:20 0
29 *37:39 *43:28 0
30 *37:39 *84:8 0
31 *37:39 *87:14 0
32 *37:55 *70:28 0
33 *37:55 *87:53 0
34 *313:A *37:39 0
35 *3:13 *234:B 0
36 *3:13 *37:55 0
37 *17:12 *37:39 0
38 *19:10 *37:39 0
*RES
1 *231:Y *37:6 25.0507 
2 *37:6 *37:10 16.9057 
3 *37:10 *242:B1 40.5271 
4 *37:10 *37:27 24.6943 
5 *37:27 *37:39 37.1879 
6 *37:39 *244:B1 23 
7 *37:27 *233:A 23 
8 *37:6 *37:55 21.7736 
9 *37:55 *252:B1 46.9071 
10 *37:55 *234:B 41.9357 
*END

*D_NET *38 0.000514231
*CONN
*I *240:A1 I *D sky130_fd_sc_hd__a221o_1
*I *232:Y O *D sky130_fd_sc_hd__inv_2
*CAP
1 *240:A1 0
2 *232:Y 0.000257116
3 *38:12 0.000257116
4 *38:12 *232:A 0
5 *38:12 *233:C 0
6 *38:12 *240:A2 0
7 *38:12 *240:C1 0
8 *38:12 *87:43 0
9 *38:12 *96:6 0
10 *37:27 *38:12 0
11 *37:39 *38:12 0
*RES
1 *232:Y *38:12 29.4007 
2 *38:12 *240:A1 23 
*END

*D_NET *39 0.00135709
*CONN
*I *248:A2 I *D sky130_fd_sc_hd__a22o_1
*I *249:A2 I *D sky130_fd_sc_hd__a22o_1
*I *235:C I *D sky130_fd_sc_hd__and3b_1
*I *234:X O *D sky130_fd_sc_hd__and2_1
*CAP
1 *248:A2 0
2 *249:A2 2.99362e-05
3 *235:C 0
4 *234:X 0.000228152
5 *39:44 0.000258306
6 *39:25 0.000450394
7 *39:16 0.000162152
8 *39:14 0.000228152
9 *39:14 *309:A 0
10 *39:25 *235:A_N 0
11 *39:25 *249:B1 0
12 *39:25 *82:14 0
13 *39:44 *248:A1 0
14 *39:44 *303:A 0
15 *3:13 *39:14 0
16 *11:15 *39:44 0
17 *23:8 *39:44 0
*RES
1 *234:X *39:14 44.815 
2 *39:14 *39:16 15 
3 *39:16 *235:C 23 
4 *39:16 *39:25 3.97714 
5 *39:25 *249:A2 23.8493 
6 *39:25 *39:44 37.4157 
7 *39:44 *248:A2 23 
*END

*D_NET *40 0.00140327
*CONN
*I *261:A1 I *D sky130_fd_sc_hd__o41a_1
*I *241:A1 I *D sky130_fd_sc_hd__o31a_1
*I *239:A I *D sky130_fd_sc_hd__nor3_1
*I *236:X O *D sky130_fd_sc_hd__or3_1
*CAP
1 *261:A1 0
2 *241:A1 6.20329e-05
3 *239:A 6.30662e-05
4 *236:X 0.000389582
5 *40:25 0.000248987
6 *40:10 0.000639602
7 *239:A *43:10 0
8 *239:A *51:14 0
9 *241:A1 *261:A2 0
10 *241:A1 *51:22 0
11 *40:10 *43:10 0
12 *40:10 *70:28 0
13 *40:10 *99:36 0
14 *40:10 *100:31 0
15 *40:25 *261:A2 0
16 *40:25 *267:A 0
17 *40:25 *267:C 0
18 *40:25 *50:38 0
19 *40:25 *51:22 0
*RES
1 *236:X *40:10 48.7921 
2 *40:10 *239:A 39.9057 
3 *40:10 *40:25 19.4536 
4 *40:25 *241:A1 24.5743 
5 *40:25 *261:A1 23 
*END

*D_NET *41 0.00231912
*CONN
*I *276:A1 I *D sky130_fd_sc_hd__o211a_1
*I *239:B I *D sky130_fd_sc_hd__nor3_1
*I *261:A2 I *D sky130_fd_sc_hd__o41a_1
*I *241:A2 I *D sky130_fd_sc_hd__o31a_1
*I *237:Y O *D sky130_fd_sc_hd__nand2_1
*CAP
1 *276:A1 0
2 *239:B 0
3 *261:A2 0.000187803
4 *241:A2 0
5 *237:Y 6.20329e-05
6 *41:57 0.000128111
7 *41:22 0.000488554
8 *41:16 0.000781613
9 *41:6 0.000671006
10 *261:A2 *241:A3 0
11 *261:A2 *267:C 0
12 *261:A2 *44:10 0
13 *41:6 *237:B 0
14 *41:6 *275:B1 0
15 *41:16 *237:B 0
16 *41:16 *260:A_N 0
17 *41:16 *275:A2 0
18 *41:16 *275:A3 0
19 *41:16 *42:6 0
20 *41:16 *54:41 0
21 *41:22 *239:C 0
22 *41:57 *293:CLK 0
23 *41:57 *54:45 0
24 *41:57 *55:23 0
25 *241:A1 *261:A2 0
26 *28:10 *41:22 0
27 *40:25 *261:A2 0
*RES
1 *237:Y *41:6 24.5743 
2 *41:6 *41:16 11.7864 
3 *41:16 *41:22 22.8714 
4 *41:22 *241:A2 38 
5 *41:22 *261:A2 42.8471 
6 *41:16 *239:B 23 
7 *41:6 *41:57 33.48 
8 *41:57 *276:A1 23 
*END

*D_NET *42 0.00103677
*CONN
*I *261:A3 I *D sky130_fd_sc_hd__o41a_1
*I *241:A3 I *D sky130_fd_sc_hd__o31a_1
*I *239:C I *D sky130_fd_sc_hd__nor3_1
*I *238:Y O *D sky130_fd_sc_hd__nand2_1
*CAP
1 *261:A3 6.52331e-05
2 *241:A3 0.00012902
3 *239:C 9.86216e-05
4 *238:Y 0.000145232
5 *42:19 0.00027453
6 *42:6 0.00032413
7 *241:A3 *70:28 0
8 *261:A3 *50:38 0
9 *42:19 *50:38 0
10 *261:A2 *241:A3 0
11 *41:16 *42:6 0
12 *41:22 *239:C 0
*RES
1 *238:Y *42:6 26.9564 
2 *42:6 *239:C 25.9 
3 *42:6 *42:19 17.4339 
4 *42:19 *241:A3 41.4696 
5 *42:19 *261:A3 39.7711 
*END

*D_NET *43 0.00260643
*CONN
*I *240:B2 I *D sky130_fd_sc_hd__a221o_1
*I *239:Y O *D sky130_fd_sc_hd__nor3_1
*CAP
1 *240:B2 0
2 *239:Y 0.000394603
3 *43:28 8.843e-05
4 *43:20 0.00090861
5 *43:10 0.00121478
6 *43:10 *260:A_N 0
7 *43:10 *54:70 0
8 *43:10 *60:10 0
9 *43:10 *66:27 0
10 *43:10 *99:24 0
11 *43:10 *100:41 0
12 *43:20 *244:A1 0
13 *43:20 *66:14 0
14 *43:20 *92:10 0
15 *43:20 *99:24 0
16 *43:28 *87:14 0
17 *43:28 *96:6 0
18 *239:A *43:10 0
19 *313:A *43:28 0
20 *3:13 *43:20 0
21 *37:39 *43:20 0
22 *37:39 *43:28 0
23 *40:10 *43:10 0
*RES
1 *239:Y *43:10 49.6311 
2 *43:10 *43:20 35.2689 
3 *43:20 *43:28 32.5893 
4 *43:28 *240:B2 23 
*END

*D_NET *44 0.000260864
*CONN
*I *242:A2 I *D sky130_fd_sc_hd__o21a_1
*I *241:X O *D sky130_fd_sc_hd__o31a_1
*CAP
1 *242:A2 6.50276e-05
2 *241:X 6.54044e-05
3 *44:10 0.000130432
4 *242:A2 *242:A1 0
5 *261:A2 *44:10 0
*RES
1 *241:X *44:10 39.8229 
2 *44:10 *242:A2 39.5743 
*END

*D_NET *45 0.000792882
*CONN
*I *244:A2 I *D sky130_fd_sc_hd__o21a_1
*I *251:A1 I *D sky130_fd_sc_hd__o21ai_1
*I *243:Y O *D sky130_fd_sc_hd__a21boi_1
*CAP
1 *244:A2 0
2 *251:A1 0.000100108
3 *243:Y 8.17123e-05
4 *45:21 0.00021462
5 *45:6 0.000396441
6 *251:A1 *48:29 0
7 *251:A1 *49:14 0
8 *45:6 *95:12 0
9 *45:21 *246:A3 0
10 *45:21 *299:A 0
11 *45:21 *48:29 0
12 *45:21 *80:16 0
13 *45:21 *80:34 0
14 *45:21 *87:14 0
15 *22:8 *45:21 0
*RES
1 *243:Y *45:6 25.0507 
2 *45:6 *251:A1 25.4236 
3 *45:6 *45:21 36.4836 
4 *45:21 *244:A2 23 
*END

*D_NET *46 0.00135574
*CONN
*I *246:C1 I *D sky130_fd_sc_hd__a311o_1
*I *245:X O *D sky130_fd_sc_hd__o21a_1
*CAP
1 *246:C1 0.000478295
2 *245:X 0.000199576
3 *46:12 0.000677871
4 *246:C1 *235:A_N 0
5 *246:C1 *277:D 0
6 *246:C1 *75:8 0
7 *46:12 *245:B1 0
8 *245:A2 *46:12 0
9 *21:10 *246:C1 0
*RES
1 *245:X *46:12 43.2821 
2 *46:12 *246:C1 49.5793 
*END

*D_NET *47 0.00103007
*CONN
*I *248:B1 I *D sky130_fd_sc_hd__a22o_1
*I *249:B1 I *D sky130_fd_sc_hd__a22o_1
*I *247:Y O *D sky130_fd_sc_hd__nor2_1
*CAP
1 *248:B1 0.000169007
2 *249:B1 0.000123568
3 *247:Y 0.000222463
4 *47:8 0.000515037
5 *249:B1 *82:14 0
6 *47:8 *230:A 0
7 *47:8 *88:8 0
8 *36:10 *47:8 0
9 *39:25 *249:B1 0
*RES
1 *247:Y *47:8 43.3857 
2 *47:8 *249:B1 41.5836 
3 *47:8 *248:B1 42.4743 
*END

*D_NET *48 0.00120541
*CONN
*I *251:A2 I *D sky130_fd_sc_hd__o21ai_1
*I *253:B1 I *D sky130_fd_sc_hd__a211oi_1
*I *250:X O *D sky130_fd_sc_hd__and2b_1
*CAP
1 *251:A2 0
2 *253:B1 8.55626e-05
3 *250:X 0.000381609
4 *48:29 0.000135534
5 *48:12 0.000602706
6 *48:12 *250:B 0
7 *48:12 *75:18 0
8 *48:12 *90:6 0
9 *48:12 *90:29 0
10 *48:29 *246:A3 0
11 *48:29 *87:10 0
12 *48:29 *87:14 0
13 *48:29 *95:12 0
14 *251:A1 *48:29 0
15 *26:10 *253:B1 0
16 *35:8 *253:B1 0
17 *35:8 *48:12 0
18 *45:21 *48:29 0
*RES
1 *250:X *48:12 32.3836 
2 *48:12 *253:B1 25.0714 
3 *48:12 *48:29 33.8114 
4 *48:29 *251:A2 23 
*END

*D_NET *49 0.00116048
*CONN
*I *253:A2 I *D sky130_fd_sc_hd__a211oi_1
*I *252:C1 I *D sky130_fd_sc_hd__o211a_1
*I *251:Y O *D sky130_fd_sc_hd__o21ai_1
*CAP
1 *253:A2 0.000282608
2 *252:C1 0.000120088
3 *251:Y 0.000177542
4 *49:14 0.000580238
5 *252:C1 *68:52 0
6 *252:C1 *68:56 0
7 *252:C1 *80:64 0
8 *252:C1 *89:8 0
9 *253:A2 *229:A 0
10 *253:A2 *68:56 0
11 *253:A2 *80:64 0
12 *253:A2 *85:6 0
13 *49:14 *243:B1_N 0
14 *49:14 *95:12 0
15 *251:A1 *49:14 0
16 *35:8 *253:A2 0
*RES
1 *251:Y *49:14 42.6193 
2 *49:14 *252:C1 41.3557 
3 *49:14 *253:A2 45.5607 
*END

*D_NET *50 0.00144221
*CONN
*I *261:A4 I *D sky130_fd_sc_hd__o41a_1
*I *256:A2 I *D sky130_fd_sc_hd__o21ai_1
*I *257:A2 I *D sky130_fd_sc_hd__a21oi_1
*I *254:Y O *D sky130_fd_sc_hd__nand2_1
*CAP
1 *261:A4 0
2 *256:A2 0
3 *257:A2 2.0535e-05
4 *254:Y 4.53482e-05
5 *50:38 0.000477253
6 *50:17 0.000655223
7 *50:6 0.000243853
8 *257:A2 *254:A 0
9 *257:A2 *254:B 0
10 *50:6 *254:A 0
11 *50:6 *254:B 0
12 *50:17 *254:B 0
13 *50:17 *257:B1 0
14 *50:38 *254:B 0
15 *50:38 *257:B1 0
16 *50:38 *53:10 0
17 *50:38 *67:8 0
18 *50:38 *67:64 0
19 *50:38 *70:45 0
20 *256:A1 *50:17 0
21 *257:A1 *50:17 0
22 *261:A3 *50:38 0
23 *27:10 *50:17 0
24 *28:10 *50:38 0
25 *40:25 *50:38 0
26 *42:19 *50:38 0
*RES
1 *254:Y *50:6 24.0979 
2 *50:6 *257:A2 23.4971 
3 *50:6 *50:17 4.45357 
4 *50:17 *256:A2 23 
5 *50:17 *50:38 42.9257 
6 *50:38 *261:A4 23 
*END

*D_NET *51 0.0018689
*CONN
*I *271:A I *D sky130_fd_sc_hd__and3_1
*I *261:B1 I *D sky130_fd_sc_hd__o41a_1
*I *267:A I *D sky130_fd_sc_hd__and3_1
*I *260:B I *D sky130_fd_sc_hd__and3b_1
*I *256:B1 I *D sky130_fd_sc_hd__o21ai_1
*I *255:Y O *D sky130_fd_sc_hd__nor2_1
*CAP
1 *271:A 0.000189894
2 *261:B1 0
3 *267:A 0.000102247
4 *260:B 2.26741e-05
5 *256:B1 0
6 *255:Y 8.4707e-05
7 *51:36 0.000214909
8 *51:22 0.000458417
9 *51:14 0.000351177
10 *51:10 9.91848e-05
11 *51:8 0.00034569
12 *267:A *267:C 0
13 *271:A *266:A2 0
14 *271:A *70:28 0
15 *271:A *100:41 0
16 *51:8 *242:A1 0
17 *51:8 *266:A2 0
18 *51:8 *81:14 0
19 *51:22 *53:10 0
20 *51:22 *70:28 0
21 *51:36 *70:28 0
22 *51:36 *70:45 0
23 *239:A *51:14 0
24 *241:A1 *51:22 0
25 *28:10 *51:36 0
26 *40:25 *267:A 0
27 *40:25 *51:22 0
*RES
1 *255:Y *51:8 40.0507 
2 *51:8 *51:10 2.25786 
3 *51:10 *51:14 15.8493 
4 *51:14 *51:22 35.9657 
5 *51:22 *51:36 35.8207 
6 *51:36 *256:B1 23 
7 *51:22 *260:B 23.6214 
8 *51:14 *267:A 25.5479 
9 *51:10 *261:B1 38 
10 *51:8 *271:A 42.8471 
*END

*D_NET *52 0.000283212
*CONN
*I *257:B1 I *D sky130_fd_sc_hd__a21oi_1
*I *256:Y O *D sky130_fd_sc_hd__o21ai_1
*CAP
1 *257:B1 0.000141606
2 *256:Y 0.000141606
3 *256:A1 *257:B1 0
4 *257:A1 *257:B1 0
5 *50:17 *257:B1 0
6 *50:38 *257:B1 0
*RES
1 *256:Y *257:B1 49.4282 
*END

*D_NET *53 0.000449791
*CONN
*I *260:C I *D sky130_fd_sc_hd__and3b_1
*I *258:X O *D sky130_fd_sc_hd__a31o_1
*CAP
1 *260:C 0
2 *258:X 0.000224896
3 *53:10 0.000224896
4 *53:10 *288:CLK 0
5 *28:10 *53:10 0
6 *50:38 *53:10 0
7 *51:22 *53:10 0
*RES
1 *258:X *53:10 44.525 
2 *53:10 *260:C 38 
*END

*D_NET *54 0.00409266
*CONN
*I *275:A2 I *D sky130_fd_sc_hd__a31o_1
*I *262:B I *D sky130_fd_sc_hd__nand2_1
*I *265:C I *D sky130_fd_sc_hd__nand3_1
*I *263:B I *D sky130_fd_sc_hd__or2_1
*I *270:A I *D sky130_fd_sc_hd__nand2_1
*I *268:A3 I *D sky130_fd_sc_hd__a31o_1
*I *266:A2 I *D sky130_fd_sc_hd__a21o_1
*I *260:A_N I *D sky130_fd_sc_hd__and3b_1
*I *272:B I *D sky130_fd_sc_hd__nand3_1
*I *273:A1 I *D sky130_fd_sc_hd__a21o_1
*I *259:X O *D sky130_fd_sc_hd__and4_2
*CAP
1 *275:A2 6.28885e-05
2 *262:B 0
3 *265:C 3.52946e-05
4 *263:B 0
5 *270:A 0
6 *268:A3 0
7 *266:A2 0.0002015
8 *260:A_N 8.4707e-05
9 *272:B 0
10 *273:A1 8.55626e-05
11 *259:X 0.000170298
12 *54:89 0.000224202
13 *54:70 0.00010971
14 *54:53 0.000585438
15 *54:49 0.000296902
16 *54:47 2.26741e-05
17 *54:45 0.000405927
18 *54:41 0.000578094
19 *54:32 0.00047846
20 *54:14 0.000285351
21 *54:10 0.000465654
22 *265:C *68:20 0
23 *265:C *99:16 0
24 *265:C *99:53 0
25 *266:A2 *255:B 0
26 *266:A2 *100:41 0
27 *273:A1 *272:A 0
28 *273:A1 *272:C 0
29 *275:A2 *102:40 0
30 *54:10 *238:A 0
31 *54:10 *259:D 0
32 *54:14 *272:C 0
33 *54:14 *67:64 0
34 *54:32 *238:A 0
35 *54:41 *275:A3 0
36 *54:45 *264:A 0
37 *54:45 *274:A 0
38 *54:45 *293:CLK 0
39 *54:45 *56:10 0
40 *54:45 *61:14 0
41 *54:45 *61:18 0
42 *54:45 *62:21 0
43 *54:45 *65:8 0
44 *54:53 *264:A 0
45 *54:53 *271:B 0
46 *54:53 *271:C 0
47 *54:53 *100:41 0
48 *54:70 *60:10 0
49 *54:70 *100:41 0
50 *54:89 *263:A 0
51 *54:89 *56:10 0
52 *54:89 *58:8 0
53 *54:89 *61:12 0
54 *54:89 *62:21 0
55 *54:89 *68:28 0
56 *54:89 *99:57 0
57 *54:89 *100:23 0
58 *271:A *266:A2 0
59 *4:8 *54:10 0
60 *31:10 *54:49 0
61 *31:10 *54:53 0
62 *41:16 *260:A_N 0
63 *41:16 *275:A2 0
64 *41:16 *54:41 0
65 *41:57 *54:45 0
66 *43:10 *260:A_N 0
67 *43:10 *54:70 0
68 *51:8 *266:A2 0
*RES
1 *259:X *54:10 42.9921 
2 *54:10 *54:14 19.9093 
3 *54:14 *273:A1 25.0714 
4 *54:14 *272:B 23 
5 *54:10 *54:32 17.9621 
6 *54:32 *260:A_N 25.0507 
7 *54:32 *54:41 7.29143 
8 *54:41 *54:45 21.4836 
9 *54:45 *54:47 15 
10 *54:47 *54:49 0.621429 
11 *54:49 *54:53 6.71143 
12 *54:53 *266:A2 27.9507 
13 *54:53 *54:70 33.3143 
14 *54:70 *268:A3 23 
15 *54:49 *270:A 23 
16 *54:47 *263:B 23 
17 *54:45 *54:89 20.7793 
18 *54:89 *265:C 23.9321 
19 *54:89 *262:B 23 
20 *54:41 *275:A2 24.595 
*END

*D_NET *55 0.00176516
*CONN
*I *264:A I *D sky130_fd_sc_hd__and3_1
*I *274:A I *D sky130_fd_sc_hd__and3_1
*I *276:C1 I *D sky130_fd_sc_hd__o211a_1
*I *261:X O *D sky130_fd_sc_hd__o41a_1
*CAP
1 *264:A 0.000141112
2 *274:A 0.000237934
3 *276:C1 2.0535e-05
4 *261:X 0.000240645
5 *55:23 0.000621402
6 *55:6 0.000503536
7 *264:A *264:B 0
8 *264:A *264:C 0
9 *264:A *314:A 0
10 *264:A *56:10 0
11 *274:A *293:CLK 0
12 *274:A *314:A 0
13 *274:A *67:70 0
14 *274:A *77:12 0
15 *274:A *102:40 0
16 *276:C1 *62:21 0
17 *55:6 *267:B 0
18 *55:6 *267:C 0
19 *55:23 *267:B 0
20 *55:23 *293:CLK 0
21 *55:23 *62:21 0
22 *293:D *55:23 0
23 *41:57 *55:23 0
24 *54:45 *264:A 0
25 *54:45 *274:A 0
26 *54:53 *264:A 0
*RES
1 *261:X *55:6 28.8621 
2 *55:6 *276:C1 23.4971 
3 *55:6 *55:23 21.0486 
4 *55:23 *274:A 45.1879 
5 *55:23 *264:A 41.8529 
*END

*D_NET *56 0.000647524
*CONN
*I *264:B I *D sky130_fd_sc_hd__and3_1
*I *262:Y O *D sky130_fd_sc_hd__nand2_1
*CAP
1 *264:B 6.50276e-05
2 *262:Y 0.000258734
3 *56:10 0.000323762
4 *264:B *264:C 0
5 *56:10 *263:A 0
6 *264:A *264:B 0
7 *264:A *56:10 0
8 *29:8 *56:10 0
9 *31:10 *56:10 0
10 *54:45 *56:10 0
11 *54:89 *56:10 0
*RES
1 *262:Y *56:10 45.3536 
2 *56:10 *264:B 39.5743 
*END

*D_NET *57 0.0001369
*CONN
*I *264:C I *D sky130_fd_sc_hd__and3_1
*I *263:X O *D sky130_fd_sc_hd__or2_1
*CAP
1 *264:C 6.84501e-05
2 *263:X 6.84501e-05
3 *264:A *264:C 0
4 *264:B *264:C 0
*RES
1 *263:X *264:C 47.6571 
*END

*D_NET *58 0.000861543
*CONN
*I *267:B I *D sky130_fd_sc_hd__and3_1
*I *265:Y O *D sky130_fd_sc_hd__nand3_1
*CAP
1 *267:B 0.000204495
2 *265:Y 0.000226277
3 *58:8 0.000430772
4 *58:8 *61:12 0
5 *58:8 *61:14 0
6 *58:8 *100:23 0