*SPEF "ieee 1481-1999"
*DESIGN "top"
*DATE "12:13:00 Friday April 12, 2024"
*VENDOR "The OpenROAD Project"
*PROGRAM "OpenROAD"
*VERSION "0889970d1790a2617e69f253221b8bd7626e51dc"
*DESIGN_FLOW "NAME_SCOPE LOCAL" "PIN_CAP NONE"
*DIVIDER /
*DELIMITER :
*BUS_DELIMITER []
*T_UNIT 1 NS
*C_UNIT 1 PF
*R_UNIT 1 OHM
*L_UNIT 1 HENRY

*NAME_MAP
*3 clk
*4 count_out[0]
*5 count_out[1]
*6 count_out[2]
*7 count_out[3]
*8 count_out[4]
*9 count_out[5]
*10 count_out[6]
*11 data_in
*12 ready
*13 rst
*14 running
*15 start
*16 temp_reset
*17 _000_
*18 _001_
*19 _002_
*20 _003_
*21 _004_
*22 _005_
*23 _006_
*24 _007_
*25 _008_
*26 _009_
*27 _010_
*28 _011_
*29 _012_
*30 _013_
*31 _014_
*32 _015_
*33 _016_
*34 _017_
*35 _018_
*36 _019_
*37 _020_
*38 _021_
*39 _022_
*40 _023_
*41 _024_
*42 _025_
*43 _026_
*44 _027_
*45 _028_
*46 _029_
*47 _030_
*48 _031_
*49 _032_
*50 _033_
*51 _034_
*52 _035_
*53 _036_
*54 _037_
*55 _038_
*56 _039_
*57 _040_
*58 _041_
*59 _042_
*60 _043_
*61 _044_
*62 _045_
*63 _046_
*64 _047_
*65 _048_
*66 clknet_0_clk
*67 clknet_1_0__leaf_clk
*68 clknet_1_1__leaf_clk
*69 controller_inst\.clear
*70 data_counter_inst\.inc
*71 data_edge_detector_inst\.input_buffer\[0\]
*72 data_edge_detector_inst\.input_buffer\[1\]
*73 data_edge_detector_inst\.reset_counter\[0\]
*74 data_edge_detector_inst\.reset_counter\[1\]
*75 data_edge_detector_inst\.state\[0\]
*76 net1
*77 net10
*78 net11
*79 net12
*80 net13
*81 net14
*82 net15
*83 net16
*84 net17
*85 net18
*86 net19
*87 net2
*88 net20
*89 net21
*90 net22
*91 net23
*92 net24
*93 net25
*94 net26
*95 net3
*96 net4
*97 net5
*98 net6
*99 net7
*100 net8
*101 net9
*102 FILLER_0_0_3
*103 FILLER_0_0_52
*104 FILLER_0_0_63
*105 FILLER_0_0_75
*106 FILLER_0_0_81
*107 FILLER_0_10_10
*108 FILLER_0_10_29
*109 FILLER_0_10_3
*110 FILLER_0_10_52
*111 FILLER_0_10_64
*112 FILLER_0_10_76
*113 FILLER_0_11_22
*114 FILLER_0_11_31
*115 FILLER_0_11_35
*116 FILLER_0_11_73
*117 FILLER_0_11_81
*118 FILLER_0_12_27
*119 FILLER_0_12_29
*120 FILLER_0_12_3
*121 FILLER_0_12_35
*122 FILLER_0_12_68
*123 FILLER_0_12_80
*124 FILLER_0_13_15
*125 FILLER_0_13_27
*126 FILLER_0_13_29
*127 FILLER_0_13_3
*128 FILLER_0_13_41
*129 FILLER_0_13_53
*130 FILLER_0_13_71
*131 FILLER_0_13_79
*132 FILLER_0_1_11
*133 FILLER_0_1_3
*134 FILLER_0_1_78
*135 FILLER_0_2_15
*136 FILLER_0_2_19
*137 FILLER_0_2_3
*138 FILLER_0_2_33
*139 FILLER_0_2_55
*140 FILLER_0_2_67
*141 FILLER_0_2_75
*142 FILLER_0_3_15
*143 FILLER_0_3_21
*144 FILLER_0_3_26
*145 FILLER_0_3_3
*146 FILLER_0_3_34
*147 FILLER_0_3_48
*148 FILLER_0_3_57
*149 FILLER_0_3_69
*150 FILLER_0_3_81
*151 FILLER_0_4_19
*152 FILLER_0_4_27
*153 FILLER_0_4_29
*154 FILLER_0_4_51
*155 FILLER_0_4_57
*156 FILLER_0_5_30
*157 FILLER_0_5_50
*158 FILLER_0_5_81
*159 FILLER_0_6_25
*160 FILLER_0_6_29
*161 FILLER_0_6_33
*162 FILLER_0_6_65
*163 FILLER_0_6_73
*164 FILLER_0_7_12
*165 FILLER_0_7_22
*166 FILLER_0_7_47
*167 FILLER_0_7_55
*168 FILLER_0_7_67
*169 FILLER_0_7_75
*170 FILLER_0_8_21
*171 FILLER_0_8_29
*172 FILLER_0_8_3
*173 FILLER_0_9_17
*174 FILLER_0_9_60
*175 FILLER_0_9_7
*176 FILLER_0_9_80
*177 PHY_EDGE_ROW_0_Left_14
*178 PHY_EDGE_ROW_0_Right_0
*179 PHY_EDGE_ROW_10_Left_24
*180 PHY_EDGE_ROW_10_Right_10
*181 PHY_EDGE_ROW_11_Left_25
*182 PHY_EDGE_ROW_11_Right_11
*183 PHY_EDGE_ROW_12_Left_26
*184 PHY_EDGE_ROW_12_Right_12
*185 PHY_EDGE_ROW_13_Left_27
*186 PHY_EDGE_ROW_13_Right_13
*187 PHY_EDGE_ROW_1_Left_15
*188 PHY_EDGE_ROW_1_Right_1
*189 PHY_EDGE_ROW_2_Left_16
*190 PHY_EDGE_ROW_2_Right_2
*191 PHY_EDGE_ROW_3_Left_17
*192 PHY_EDGE_ROW_3_Right_3
*193 PHY_EDGE_ROW_4_Left_18
*194 PHY_EDGE_ROW_4_Right_4
*195 PHY_EDGE_ROW_5_Left_19
*196 PHY_EDGE_ROW_5_Right_5
*197 PHY_EDGE_ROW_6_Left_20
*198 PHY_EDGE_ROW_6_Right_6
*199 PHY_EDGE_ROW_7_Left_21
*200 PHY_EDGE_ROW_7_Right_7
*201 PHY_EDGE_ROW_8_Left_22
*202 PHY_EDGE_ROW_8_Right_8
*203 PHY_EDGE_ROW_9_Left_23
*204 PHY_EDGE_ROW_9_Right_9
*205 TAP_TAPCELL_ROW_0_28
*206 TAP_TAPCELL_ROW_0_29
*207 TAP_TAPCELL_ROW_10_39
*208 TAP_TAPCELL_ROW_11_40
*209 TAP_TAPCELL_ROW_12_41
*210 TAP_TAPCELL_ROW_13_42
*211 TAP_TAPCELL_ROW_13_43
*212 TAP_TAPCELL_ROW_1_30
*213 TAP_TAPCELL_ROW_2_31
*214 TAP_TAPCELL_ROW_3_32
*215 TAP_TAPCELL_ROW_4_33
*216 TAP_TAPCELL_ROW_5_34
*217 TAP_TAPCELL_ROW_6_35
*218 TAP_TAPCELL_ROW_7_36
*219 TAP_TAPCELL_ROW_8_37
*220 TAP_TAPCELL_ROW_9_38
*221 _049_
*222 _050_
*223 _051_
*224 _052_
*225 _053_
*226 _054_
*227 _055_
*228 _056_
*229 _057_
*230 _058_
*231 _059_
*232 _060_
*233 _061_
*234 _062_
*235 _063_
*236 _064_
*237 _065_
*238 _066_
*239 _067_
*240 _068_
*241 _069_
*242 _070_
*243 _071_
*244 _072_
*245 _073_
*246 _074_
*247 _075_
*248 _076_
*249 _077_
*250 _078_
*251 _079_
*252 _080_
*253 _081_
*254 _082_
*255 _083_
*256 _084_
*257 _085_
*258 _086_
*259 _087_
*260 _088_
*261 _089_
*262 _090_
*263 _091_
*264 _092_
*265 _093_
*266 _094_
*267 _095_
*268 _096_
*269 _097_
*270 _098_
*271 _099_
*272 _100_
*273 _101_
*274 _102_
*275 _103_
*276 _104_
*277 _105_
*278 _106_
*279 _107_
*280 _108_
*281 _109_
*282 _110_
*283 _111_
*284 _112_
*285 _113_
*286 _114_
*287 clkbuf_0_clk
*288 clkbuf_1_0__f_clk
*289 clkbuf_1_1__f_clk
*290 hold1
*291 hold10
*292 hold11
*293 hold12
*294 hold13
*295 hold2
*296 hold3
*297 hold4
*298 hold5
*299 hold6
*300 hold7
*301 hold8
*302 hold9
*303 input1
*304 input2
*305 input3
*306 output10
*307 output11
*308 output12
*309 output13
*310 output4
*311 output5
*312 output6
*313 output7
*314 output8
*315 output9

*PORTS
clk I
count_out[0] O
count_out[1] O
count_out[2] O
count_out[3] O
count_out[4] O
count_out[5] O
count_out[6] O
data_in I
ready O
rst I
running O
start I
temp_reset O

*D_NET *3 0.00264582
*CONN
*P clk I
*I *287:A I *D sky130_fd_sc_hd__clkbuf_16
*CAP
1 clk 0.00132291
2 *287:A 0
3 *3:17 0.00132291
4 *3:17 *304:A 0
5 *3:17 *18:8 0
6 *3:17 *37:68 0
7 *3:17 *42:16 0
8 *3:17 *44:31 0
9 *3:17 *49:12 0
10 *3:17 *51:8 0
11 *3:17 *51:65 0
12 *3:17 *80:21 0
13 *3:17 *89:10 0
*RES
1 clk *3:17 40.0678 
2 *3:17 *287:A 23 
*END

*D_NET *4 0.000738124
*CONN
*P count_out[0] O
*I *310:X O *D sky130_fd_sc_hd__buf_2
*CAP
1 count_out[0] 0.000369062
2 *310:X 0.000369062
3 count_out[0] *310:A 0
4 count_out[0] *20:16 0
5 count_out[0] *79:32 0
6 count_out[0] *96:19 0
*RES
1 *310:X count_out[0] 48.5229 
*END

*D_NET *5 0.000606834
*CONN
*P count_out[1] O
*I *311:X O *D sky130_fd_sc_hd__buf_2
*CAP
1 count_out[1] 0.000303417
2 *311:X 0.000303417
*RES
1 *311:X count_out[1] 47.2386 
*END

*D_NET *6 0.000618652
*CONN
*P count_out[2] O
*I *312:X O *D sky130_fd_sc_hd__buf_2
*CAP
1 count_out[2] 0.000158817
2 *312:X 0.000150509
3 *6:8 0.000309326
4 count_out[2] count_out[3] 0
5 *6:8 *99:8 0
*RES
1 *312:X *6:8 42.5468 
2 *6:8 count_out[2] 8.75787 
*END

*D_NET *7 0.000338891
*CONN
*P count_out[3] O
*I *313:X O *D sky130_fd_sc_hd__buf_2
*CAP
1 count_out[3] 0.000169446
2 *313:X 0.000169446
3 count_out[3] count_out[4] 0
4 count_out[2] count_out[3] 0
*RES
1 *313:X count_out[3] 47.0789 
*END

*D_NET *8 0.000338857
*CONN
*P count_out[4] O
*I *314:X O *D sky130_fd_sc_hd__buf_2
*CAP
1 count_out[4] 0.000169428
2 *314:X 0.000169428
3 count_out[4] count_out[6] 0
4 count_out[4] *10:10 0
5 count_out[3] count_out[4] 0
*RES
1 *314:X count_out[4] 47.0789 
*END

*D_NET *9 0.000385518
*CONN
*P count_out[5] O
*I *315:X O *D sky130_fd_sc_hd__buf_2
*CAP
1 count_out[5] 0.000192759
2 *315:X 0.000192759
3 count_out[5] count_out[6] 0
*RES
1 *315:X count_out[5] 47.7832 
*END

*D_NET *10 0.000715909
*CONN
*P count_out[6] O
*I *306:X O *D sky130_fd_sc_hd__buf_2
*CAP
1 count_out[6] 0.000230794
2 *306:X 0.000127161
3 *10:10 0.000357955
4 *10:10 *306:A 0
5 count_out[4] count_out[6] 0
6 count_out[4] *10:10 0
7 count_out[5] count_out[6] 0
*RES
1 *306:X *10:10 49.8425 
2 *10:10 count_out[6] 1.10133 
*END

*D_NET *11 0.000776016
*CONN
*P data_in I
*I *303:A I *D sky130_fd_sc_hd__clkbuf_1
*CAP
1 data_in 0.000388008
2 *303:A 0
3 *11:19 0.000388008
4 *11:19 *304:A 0
5 *11:19 *305:A 0
6 *11:19 *307:A 0
7 *11:19 *12:8 0
*RES
1 data_in *11:19 43.868 
2 *11:19 *303:A 23 
*END

*D_NET *12 0.000794452
*CONN
*P ready O
*I *307:X O *D sky130_fd_sc_hd__buf_2
*CAP
1 ready 0.000176812
2 *307:X 0.000220414
3 *12:8 0.000397226
4 ready *305:A 0
5 *12:8 *307:A 0
6 *12:8 *78:10 0
7 *12:8 *95:14 0
8 *11:19 *12:8 0
*RES
1 *307:X *12:8 44.6596 
2 *12:8 ready 8.84373 
*END

*D_NET *13 0.000558623
*CONN
*P rst I
*I *304:A I *D sky130_fd_sc_hd__clkbuf_2
*CAP
1 rst 0.000279311
2 *304:A 0.000279311
3 *3:17 *304:A 0
4 *11:19 *304:A 0
*RES
1 rst *304:A 49.3115 
*END

*D_NET *14 0.000823424
*CONN
*P running O
*I *308:X O *D sky130_fd_sc_hd__buf_2
*CAP
1 running 0.000411712
2 *308:X 0.000411712
3 running *20:16 0
4 running *79:21 0
*RES
1 *308:X running 49.7657 
*END

*D_NET *15 0.00103324
*CONN
*P start I
*I *305:A I *D sky130_fd_sc_hd__buf_1
*CAP
1 start 0.000516618
2 *305:A 0.000516618
3 *305:A *82:12 0
4 *305:A *87:37 0
5 ready *305:A 0
6 *11:19 *305:A 0
*RES
1 start *305:A 49.3288 
*END

*D_NET *16 0.00140571
*CONN
*P temp_reset O
*I *309:X O *D sky130_fd_sc_hd__clkbuf_4
*CAP
1 temp_reset 0.000322959
2 *309:X 0.000379898
3 *16:8 0.000702857
4 *16:8 *300:A 0
5 *16:8 *80:60 0
*RES
1 *309:X *16:8 47.1971 
2 *16:8 temp_reset 9.75643 
*END

*D_NET *17 0.000158007
*CONN
*I *272:D I *D sky130_fd_sc_hd__dfxtp_1
*I *237:X O *D sky130_fd_sc_hd__and3_1
*CAP
1 *272:D 2.75939e-05
2 *237:X 5.14095e-05
3 *17:8 7.90034e-05
4 *272:D *272:CLK 0
5 *17:8 *19:10 0
6 *17:8 *82:27 0
*RES
1 *237:X *17:8 39.5536 
2 *17:8 *272:D 38.668 
*END

*D_NET *18 0.000305189
*CONN
*I *275:D I *D sky130_fd_sc_hd__dfxtp_1
*I *238:X O *D sky130_fd_sc_hd__and4b_1
*CAP
1 *275:D 7.91454e-06
2 *238:X 0.00014468
3 *18:8 0.000152595
4 *18:8 *48:14 0
5 *18:8 *48:29 0
6 *18:8 *68:89 0
7 *18:8 *87:12 0
8 *3:17 *18:8 0
*RES
1 *238:X *18:8 42.3707 
2 *18:8 *275:D 38.1916 
*END

*D_NET *19 0.000442513
*CONN
*I *270:D I *D sky130_fd_sc_hd__dfxtp_1
*I *232:X O *D sky130_fd_sc_hd__a221o_1
*CAP
1 *270:D 7.91454e-06
2 *232:X 0.000213342
3 *19:10 0.000221256
4 *19:10 *237:A 0
5 *19:10 *272:CLK 0
6 *19:10 *42:16 0
7 *19:10 *79:14 0
8 *19:10 *82:12 0
9 *19:10 *82:27 0
10 *17:8 *19:10 0
*RES
1 *232:X *19:10 44.1729 
2 *19:10 *270:D 38.1916 
*END

*D_NET *20 0.00212159
*CONN
*I *271:D I *D sky130_fd_sc_hd__dfxtp_1
*I *231:X O *D sky130_fd_sc_hd__o21a_1
*CAP
1 *271:D 0
2 *231:X 0.000379898
3 *20:16 0.000680898
4 *20:8 0.0010608
5 *20:8 *40:39 0
6 *20:8 *51:50 0
7 *20:8 *69:8 0
8 *20:16 *230:B1 0
9 *20:16 *271:CLK 0
10 *20:16 *272:CLK 0
11 *20:16 *308:A 0
12 *20:16 *34:24 0
13 *20:16 *52:10 0
14 *20:16 *67:44 0
15 *20:16 *79:21 0
16 *20:16 *79:32 0
17 *20:16 *79:56 0
18 *20:16 *96:10 0
19 *20:16 *96:23 0
20 *20:16 *97:30 0
21 count_out[0] *20:16 0
22 running *20:16 0
*RES
1 *231:X *20:8 47.1971 
2 *20:8 *20:16 34.1245 
3 *20:16 *271:D 23 
*END

*D_NET *21 0.000377081
*CONN
*I *273:D I *D sky130_fd_sc_hd__dfxtp_1
*I *236:X O *D sky130_fd_sc_hd__a311o_1
*CAP
1 *273:D 0.000137114
2 *236:X 5.14266e-05
3 *21:8 0.000188541
4 *273:D *68:55 0
5 *273:D *68:69 0
6 *21:8 *279:D 0
*RES
1 *236:X *21:8 39.5536 
2 *21:8 *273:D 41.3195 
*END

*D_NET *22 0.000169951
*CONN
*I *274:D I *D sky130_fd_sc_hd__dfxtp_1
*I *234:X O *D sky130_fd_sc_hd__o21a_1
*CAP
1 *274:D 7.91454e-06
2 *234:X 7.70611e-05
3 *22:10 8.49756e-05
4 *22:10 *37:87 0
5 *22:10 *44:31 0
*RES
1 *234:X *22:10 40.175 
2 *22:10 *274:D 38.1916 
*END

*D_NET *23 0.000216578
*CONN
*I *276:D I *D sky130_fd_sc_hd__dfxtp_1
*I *240:X O *D sky130_fd_sc_hd__and2_1
*CAP
1 *276:D 7.91454e-06
2 *240:X 0.000100374
3 *23:10 0.000108289
4 *23:10 *68:77 0
5 *23:10 *71:14 0
6 *23:10 *75:10 0
*RES
1 *240:X *23:10 40.8793 
2 *23:10 *276:D 38.1916 
*END

*D_NET *24 0.00017002
*CONN
*I *277:D I *D sky130_fd_sc_hd__dfxtp_1
*I *242:X O *D sky130_fd_sc_hd__and2_1
*CAP
1 *277:D 7.91454e-06
2 *242:X 7.70954e-05
3 *24:10 8.50099e-05
4 *24:10 *76:10 0
*RES
1 *242:X *24:10 40.175 
2 *24:10 *277:D 38.1916 
*END

*D_NET *25 0.000208773
*CONN
*I *302:A I *D sky130_fd_sc_hd__dlygate4sd3_1
*I *245:X O *D sky130_fd_sc_hd__o211a_1
*CAP
1 *302:A 0.000104386
2 *245:X 0.000104386
3 *302:A *88:12 0
*RES
1 *245:X *302:A 48.5271 
*END

*D_NET *26 0.00103333
*CONN
*I *279:D I *D sky130_fd_sc_hd__dfxtp_1
*I *246:Y O *D sky130_fd_sc_hd__a211oi_1
*CAP
1 *279:D 0.000152595
2 *246:Y 0.000364069
3 *26:10 0.000516664
4 *279:D *73:18 0
5 *279:D *74:18 0
6 *279:D *94:10 0
7 *26:10 *246:A2 0
8 *26:10 *246:C1 0
9 *26:10 *44:10 0
10 *26:10 *45:10 0
11 *26:10 *48:14 0
12 *26:10 *49:35 0
13 *26:10 *94:10 0
14 *21:8 *279:D 0
*RES
1 *246:Y *26:10 46.7414 
2 *26:10 *279:D 42.5623 
*END

*D_NET *27 0.000319115
*CONN
*I *299:A I *D sky130_fd_sc_hd__dlygate4sd3_1
*I *250:Y O *D sky130_fd_sc_hd__a21oi_1
*CAP
1 *299:A 0.000119788
2 *250:Y 3.97699e-05
3 *27:8 0.000159558
4 *299:A *52:10 0
5 *27:8 *52:10 0
6 *27:8 *67:44 0
*RES
1 *250:Y *27:8 39.2014 
2 *27:8 *299:A 40.9 
*END

*D_NET *28 0.000497882
*CONN
*I *281:D I *D sky130_fd_sc_hd__dfxtp_1
*I *253:X O *D sky130_fd_sc_hd__and3b_1
*CAP
1 *281:D 7.91454e-06
2 *253:X 0.000241027
3 *28:10 0.000248941
4 *281:D *251:A3 0
5 *28:10 *247:A 0
6 *28:10 *51:32 0
7 *28:10 *53:14 0
8 *28:10 *66:14 0
9 *28:10 *96:38 0
*RES
1 *253:X *28:10 44.7736 
2 *28:10 *281:D 38.1916 
*END

*D_NET *29 0.00056343
*CONN
*I *282:D I *D sky130_fd_sc_hd__dfxtp_1
*I *257:X O *D sky130_fd_sc_hd__and3_1
*CAP
1 *282:D 0
2 *257:X 0.000281715
3 *29:10 0.000281715
4 *29:10 *257:C 0
5 *29:10 *263:B 0
6 *29:10 *54:63 0
7 *29:10 *98:10 0
*RES
1 *257:X *29:10 29.8202 
2 *29:10 *282:D 23 
*END

*D_NET *30 0.000738432
*CONN
*I *283:D I *D sky130_fd_sc_hd__dfxtp_1
*I *260:X O *D sky130_fd_sc_hd__and3_1
*CAP
1 *283:D 4.107e-05
2 *260:X 0.000328146
3 *30:14 0.000369216
4 *30:14 *258:B 0
5 *30:14 *260:B 0
6 *30:14 *264:A 0
7 *30:14 *264:B 0
8 *30:14 *264:C 0
9 *30:14 *312:A 0
10 *30:14 *31:8 0
11 *30:14 *54:76 0
12 *30:14 *68:35 0
13 *30:14 *99:56 0
*RES
1 *260:X *30:14 47.1764 
2 *30:14 *283:D 38.9943 
*END

*D_NET *31 0.000219646
*CONN
*I *284:D I *D sky130_fd_sc_hd__dfxtp_1
*I *264:X O *D sky130_fd_sc_hd__and3_1
*CAP
1 *284:D 5.83965e-05
2 *264:X 5.14266e-05
3 *31:8 0.000109823
4 *284:D *99:23 0
5 *31:8 *99:56 0
6 *30:14 *31:8 0
*RES
1 *264:X *31:8 39.5536 
2 *31:8 *284:D 39.4137 
*END

*D_NET *32 0.000242998
*CONN
*I *285:D I *D sky130_fd_sc_hd__dfxtp_1
*I *267:X O *D sky130_fd_sc_hd__and3_1
*CAP
1 *285:D 0.000121499
2 *267:X 0.000121499
3 *285:D *285:CLK 0
4 *285:D *67:14 0
5 *285:D *67:18 0
6 *285:D *101:8 0
*RES
1 *267:X *285:D 49.0864 
*END

*D_NET *33 0.000156152
*CONN
*I *286:D I *D sky130_fd_sc_hd__dfxtp_1
*I *269:X O *D sky130_fd_sc_hd__o211a_1
*CAP
1 *286:D 7.80759e-05
2 *269:X 7.80759e-05
3 *286:D *286:CLK 0
*RES
1 *269:X *286:D 47.8902 
*END

*D_NET *34 0.00163125
*CONN
*I *249:A1 I *D sky130_fd_sc_hd__o21ai_1
*I *250:A1 I *D sky130_fd_sc_hd__a21oi_1
*I *221:Y O *D sky130_fd_sc_hd__inv_2
*CAP
1 *249:A1 0
2 *250:A1 0
3 *221:Y 0.00014708
4 *34:24 0.000228753
5 *34:14 0.000668545
6 *34:8 0.000586872
7 *34:8 *228:A 0
8 *34:8 *252:D 0
9 *34:8 *70:25 0
10 *34:8 *97:16 0
11 *34:14 *50:40 0
12 *34:14 *51:32 0
13 *34:14 *52:10 0
14 *34:14 *66:14 0
15 *34:24 *250:A2 0
16 *34:24 *51:32 0
17 *34:24 *79:56 0
18 *20:16 *34:24 0
*RES
1 *221:Y *34:8 42.3707 
2 *34:8 *34:14 25.6471 
3 *34:14 *34:24 35.9864 
4 *34:24 *250:A1 23 
5 *34:14 *249:A1 23 
*END

*D_NET *35 0.00143057
*CONN
*I *246:A1 I *D sky130_fd_sc_hd__a211oi_1
*I *222:Y O *D sky130_fd_sc_hd__inv_2
*CAP
1 *246:A1 0
2 *222:Y 0.000675517
3 *35:20 3.97699e-05
4 *35:14 0.000715287
5 *35:14 *222:A 0
6 *35:14 *238:A_N 0
7 *35:14 *238:D 0
8 *35:14 *244:B1 0
9 *35:14 *297:A 0
10 *35:14 *44:14 0
11 *35:14 *44:31 0
12 *35:14 *89:10 0
13 *35:20 *48:14 0
14 *35:20 *80:21 0
*RES
1 *222:Y *35:14 39.675 
2 *35:14 *35:20 31.2014 
3 *35:20 *246:A1 23 
*END

*D_NET *36 0.000209595
*CONN
*I *235:A2 I *D sky130_fd_sc_hd__o21a_1
*I *223:Y O *D sky130_fd_sc_hd__inv_2
*CAP
1 *235:A2 6.50276e-05
2 *223:Y 3.97699e-05
3 *36:8 0.000104797
4 *235:A2 *235:B1 0
5 *36:8 *236:B1 0
6 *36:8 *75:10 0
*RES
1 *223:Y *36:8 39.2014 
2 *36:8 *235:A2 39.5743 
*END

*D_NET *37 0.00484054
*CONN
*I *231:B1 I *D sky130_fd_sc_hd__o21a_1
*I *245:B1 I *D sky130_fd_sc_hd__o211a_1
*I *234:B1 I *D sky130_fd_sc_hd__o21a_1
*I *240:A I *D sky130_fd_sc_hd__and2_1
*I *238:D I *D sky130_fd_sc_hd__and4b_1
*I *242:A I *D sky130_fd_sc_hd__and2_1
*I *237:A I *D sky130_fd_sc_hd__and3_1
*I *224:Y O *D sky130_fd_sc_hd__inv_2
*CAP
1 *231:B1 0.000190046
2 *245:B1 0
3 *234:B1 0
4 *240:A 8.63522e-05
5 *238:D 0.000420754
6 *242:A 0
7 *237:A 0.000136989
8 *224:Y 0
9 *37:87 0.000521249
10 *37:68 0.000630618
11 *37:62 0.000695996
12 *37:34 0.000721727
13 *37:25 0.000316788
14 *37:8 0.000481299
15 *37:4 0.000638725
16 *231:B1 *40:39 0
17 *231:B1 *51:50 0
18 *237:A *38:10 0
19 *237:A *42:16 0
20 *237:A *76:10 0
21 *237:A *82:12 0
22 *238:D *238:A_N 0
23 *238:D *238:C 0
24 *238:D *87:6 0
25 *238:D *87:55 0
26 *240:A *46:10 0
27 *240:A *71:14 0
28 *37:8 *42:16 0
29 *37:8 *95:6 0
30 *37:8 *95:14 0
31 *37:25 *241:A1 0
32 *37:25 *76:10 0
33 *37:25 *87:12 0
34 *37:34 *241:A1 0
35 *37:34 *68:77 0
36 *37:34 *71:14 0
37 *37:34 *76:10 0
38 *37:62 *42:16 0
39 *37:62 *66:14 0
40 *37:68 *234:A1 0
41 *37:68 *51:65 0
42 *37:87 *222:A 0
43 *37:87 *234:A1 0
44 *37:87 *51:65 0
45 *37:87 *59:8 0
46 *37:87 *66:27 0
47 *37:87 *80:45 0
48 *37:87 *93:8 0
49 *37:87 *98:52 0
50 *37:87 *100:41 0
51 *3:17 *37:68 0
52 *19:10 *237:A 0
53 *22:10 *37:87 0
54 *35:14 *238:D 0
*RES
1 *224:Y *37:4 23 
2 *37:4 *37:8 20.8621 
3 *37:8 *237:A 41.625 
4 *37:8 *37:25 3.23143 
5 *37:25 *242:A 38 
6 *37:25 *37:34 6.48357 
7 *37:34 *238:D 48.1862 
8 *37:34 *240:A 40.5271 
9 *37:4 *37:62 24.6736 
10 *37:62 *37:68 18.2314 
11 *37:68 *234:B1 23 
12 *37:68 *37:87 44.2929 
13 *37:87 *245:B1 23 
14 *37:62 *231:B1 43.51 
*END

*D_NET *38 0.00035095
*CONN
*I *232:A1 I *D sky130_fd_sc_hd__a221o_1
*I *225:Y O *D sky130_fd_sc_hd__inv_2
*CAP
1 *232:A1 0
2 *225:Y 0.000175475
3 *38:10 0.000175475
4 *38:10 *76:10 0
5 *38:10 *79:14 0
6 *38:10 *82:12 0
7 *237:A *38:10 0
*RES
1 *225:Y *38:10 42.5571 
2 *38:10 *232:A1 38 
*END

*D_NET *39 0.00122419
*CONN
*I *229:A I *D sky130_fd_sc_hd__nor3_1
*I *254:A1 I *D sky130_fd_sc_hd__o41a_1
*I *230:A1 I *D sky130_fd_sc_hd__o31a_1
*I *226:X O *D sky130_fd_sc_hd__or3_1
*CAP
1 *229:A 0
2 *254:A1 0
3 *230:A1 7.19795e-05
4 *226:X 0.000173092
5 *39:22 0.000439005
6 *39:10 0.000540118
7 *230:A1 *230:A3 0
8 *230:A1 *43:10 0
9 *39:10 *259:A2 0
10 *39:10 *55:12 0
11 *39:10 *98:74 0
12 *39:22 *230:A3 0
13 *39:22 *254:A3 0
14 *39:22 *255:A 0
15 *39:22 *259:A2 0
16 *39:22 *50:25 0
17 *39:22 *54:50 0
18 *39:22 *54:59 0
19 *39:22 *55:12 0
*RES
1 *226:X *39:10 42.5571 
2 *39:10 *39:22 24.715 
3 *39:22 *230:A1 25.0404 
4 *39:22 *254:A1 23 
5 *39:10 *229:A 38 
*END

*D_NET *40 0.0023487
*CONN
*I *229:B I *D sky130_fd_sc_hd__nor3_1
*I *254:A2 I *D sky130_fd_sc_hd__o41a_1
*I *230:A2 I *D sky130_fd_sc_hd__o31a_1
*I *269:A1 I *D sky130_fd_sc_hd__o211a_1
*I *227:Y O *D sky130_fd_sc_hd__nand2_1
*CAP
1 *229:B 0
2 *254:A2 0
3 *230:A2 0.000312164
4 *269:A1 0
5 *227:Y 0.000228153
6 *40:39 0.000535089
7 *40:29 0.000634031
8 *40:12 0.000411107
9 *40:10 0.000228153
10 *230:A2 *230:A3 0
11 *230:A2 *41:8 0
12 *40:10 *227:B 0
13 *40:10 *269:A2 0
14 *40:10 *61:12 0
15 *40:10 *61:14 0
16 *40:10 *67:82 0
17 *40:10 *91:6 0
18 *40:10 *101:49 0
19 *40:29 *255:A 0
20 *40:29 *269:A2 0
21 *40:29 *269:C1 0
22 *40:29 *286:CLK 0
23 *40:29 *54:63 0
24 *40:29 *55:12 0
25 *40:29 *55:21 0
26 *40:29 *56:10 0
27 *40:39 *51:50 0
28 *231:B1 *40:39 0
29 *20:8 *40:39 0
*RES
1 *227:Y *40:10 44.1936 
2 *40:10 *40:12 15 
3 *40:12 *269:A1 23 
4 *40:12 *40:29 40.5436 
5 *40:29 *40:39 21.2557 
6 *40:39 *230:A2 46.3479 
7 *40:39 *254:A2 38 
8 *40:29 *229:B 23 
*END

*D_NET *41 0.0011456
*CONN
*I *229:C I *D sky130_fd_sc_hd__nor3_1
*I *254:A3 I *D sky130_fd_sc_hd__o41a_1
*I *230:A3 I *D sky130_fd_sc_hd__o31a_1
*I *228:Y O *D sky130_fd_sc_hd__nand2_1
*CAP
1 *229:C 8.39454e-05
2 *254:A3 0.000105242
3 *230:A3 0.000283212
4 *228:Y 7.47228e-05
5 *41:23 0.000214866
6 *41:8 0.000383614
7 *229:C *70:23 0
8 *254:A3 *255:A 0
9 *254:A3 *50:25 0
10 *41:8 *50:40 0
11 *41:8 *70:23 0
12 *41:8 *70:25 0
13 *41:23 *70:23 0
14 *230:A1 *230:A3 0
15 *230:A2 *230:A3 0
16 *230:A2 *41:8 0
17 *39:22 *230:A3 0
18 *39:22 *254:A3 0
*RES
1 *228:Y *41:8 40.2579 
2 *41:8 *230:A3 44.8564 
3 *41:8 *41:23 0.849286 
4 *41:23 *254:A3 40.5479 
5 *41:23 *229:C 40.61 
*END

*D_NET *42 0.00168227
*CONN
*I *232:B1 I *D sky130_fd_sc_hd__a221o_1
*I *229:Y O *D sky130_fd_sc_hd__nor3_1
*CAP
1 *232:B1 0
2 *229:Y 5.13923e-05
3 *42:16 0.000789743
4 *42:8 0.000841135
5 *42:8 *70:23 0
6 *42:16 *248:B 0
7 *42:16 *51:8 0
8 *42:16 *66:14 0
9 *42:16 *82:12 0
10 *42:16 *87:24 0
11 *42:16 *95:14 0
12 *237:A *42:16 0
13 *3:17 *42:16 0
14 *19:10 *42:16 0
15 *37:8 *42:16 0
16 *37:62 *42:16 0
*RES
1 *229:Y *42:8 39.5536 
2 *42:8 *42:16 34.1193 
3 *42:16 *232:B1 23 
*END

*D_NET *43 0.000209526
*CONN
*I *231:A2 I *D sky130_fd_sc_hd__o21a_1
*I *230:X O *D sky130_fd_sc_hd__o31a_1
*CAP
1 *231:A2 0
2 *230:X 0.000104763
3 *43:10 0.000104763
4 *230:A1 *43:10 0
*RES
1 *230:X *43:10 40.7757 
2 *43:10 *231:A2 38 
*END

*D_NET *44 0.00110186
*CONN
*I *234:A2 I *D sky130_fd_sc_hd__o21a_1
*I *244:A1 I *D sky130_fd_sc_hd__o21ai_1
*I *233:Y O *D sky130_fd_sc_hd__a21boi_1
*CAP
1 *234:A2 0
2 *244:A1 2.0535e-05
3 *233:Y 0.000155024
4 *44:31 0.000330024
5 *44:14 0.000395907
6 *44:10 0.000200372
7 *44:10 *49:12 0
8 *44:10 *71:44 0
9 *44:10 *73:18 0
10 *44:31 *297:A 0
11 *44:31 *49:12 0
12 *44:31 *51:65 0
13 *44:31 *66:27 0
14 *3:17 *44:31 0
15 *22:10 *44:31 0
16 *26:10 *44:10 0
17 *35:14 *44:14 0
18 *35:14 *44:31 0
*RES
1 *233:Y *44:10 42.4121 
2 *44:10 *44:14 16.0979 
3 *44:14 *244:A1 23.4971 
4 *44:14 *44:31 39.28 
5 *44:31 *234:A2 23 
*END

*D_NET *45 0.000240176
*CONN
*I *236:C1 I *D sky130_fd_sc_hd__a311o_1
*I *235:X O *D sky130_fd_sc_hd__o21a_1
*CAP
1 *236:C1 0
2 *235:X 0.000120088
3 *45:10 0.000120088
4 *45:10 *236:B1 0
5 *45:10 *246:C1 0
6 *26:10 *45:10 0
*RES
1 *235:X *45:10 41.3557 
2 *45:10 *236:C1 38 
*END

*D_NET *46 0.000177504
*CONN
*I *240:B I *D sky130_fd_sc_hd__and2_1
*I *239:X O *D sky130_fd_sc_hd__mux2_1
*CAP
1 *240:B 0
2 *239:X 8.87521e-05
3 *46:10 8.87521e-05
4 *46:10 *68:77 0
5 *46:10 *87:6 0
6 *240:A *46:10 0
*RES
1 *239:X *46:10 40.5271 
2 *46:10 *240:B 38 
*END

*D_NET *47 0.000239575
*CONN
*I *242:B I *D sky130_fd_sc_hd__and2_1
*I *241:X O *D sky130_fd_sc_hd__mux2_1
*CAP
1 *242:B 0.000119788
2 *241:X 0.000119788
3 *242:B *241:A1 0
4 *242:B *87:24 0
*RES
1 *241:X *242:B 48.9 
*END

*D_NET *48 0.001121
*CONN
*I *244:A2 I *D sky130_fd_sc_hd__o21ai_1
*I *246:B1 I *D sky130_fd_sc_hd__a211oi_1
*I *243:X O *D sky130_fd_sc_hd__and2b_1
*CAP
1 *244:A2 0
2 *246:B1 0
3 *243:X 0
4 *48:29 0.000349934
5 *48:14 0.000210563
6 *48:4 0.000560498
7 *48:14 *246:C1 0
8 *48:14 *71:44 0
9 *48:14 *80:21 0
10 *48:14 *87:12 0
11 *48:14 *87:55 0
12 *48:29 *238:A_N 0
13 *48:29 *238:C 0
14 *48:29 *243:A_N 0
15 *48:29 *243:B 0
16 *48:29 *274:CLK 0
17 *48:29 *49:12 0
18 *48:29 *68:81 0
19 *18:8 *48:14 0
20 *18:8 *48:29 0
21 *26:10 *48:14 0
22 *35:20 *48:14 0
*RES
1 *243:X *48:4 23 
2 *48:4 *48:14 35.9657 
3 *48:14 *246:B1 23 
4 *48:4 *48:29 38.6379 
5 *48:29 *244:A2 23 
*END

*D_NET *49 0.00120722
*CONN
*I *245:C1 I *D sky130_fd_sc_hd__o211a_1
*I *246:A2 I *D sky130_fd_sc_hd__a211oi_1
*I *244:Y O *D sky130_fd_sc_hd__o21ai_1
*CAP
1 *245:C1 0
2 *246:A2 0.000226313
3 *244:Y 0.000158769
4 *49:35 0.000218527
5 *49:14 0.00044484
6 *49:12 0.000158769
7 *246:A2 *233:B1_N 0
8 *246:A2 *73:18 0
9 *246:A2 *74:18 0
10 *246:A2 *80:34 0
11 *49:12 *238:C 0
12 *49:12 *73:18 0
13 *49:12 *80:21 0
14 *49:35 *73:18 0
15 *49:35 *74:18 0
16 *3:17 *49:12 0
17 *26:10 *246:A2 0
18 *26:10 *49:35 0
19 *44:10 *49:12 0
20 *44:31 *49:12 0
21 *48:29 *49:12 0
*RES
1 *244:Y *49:12 42.4329 
2 *49:12 *49:14 15 
3 *49:14 *246:A2 28.4064 
4 *49:14 *49:35 35.6757 
5 *49:35 *245:C1 23 
*END

*D_NET *50 0.00178715
*CONN
*I *249:A2 I *D sky130_fd_sc_hd__o21ai_1
*I *254:A4 I *D sky130_fd_sc_hd__o41a_1
*I *250:A2 I *D sky130_fd_sc_hd__a21oi_1
*I *247:Y O *D sky130_fd_sc_hd__nand2_1
*CAP
1 *249:A2 0
2 *254:A4 0
3 *250:A2 0.000316582
4 *247:Y 2.26741e-05
5 *50:40 0.000340897
6 *50:25 0.000171069
7 *50:8 0.000530004
8 *50:6 0.000405924
9 *250:A2 *247:A 0
10 *250:A2 *247:B 0
11 *250:A2 *51:32 0
12 *50:6 *247:A 0
13 *50:8 *247:A 0
14 *50:25 *51:22 0
15 *50:25 *66:14 0
16 *50:40 *52:10 0
17 *50:40 *66:14 0
18 *254:A3 *50:25 0
19 *34:14 *50:40 0
20 *34:24 *250:A2 0
21 *39:22 *50:25 0
22 *41:8 *50:40 0
*RES
1 *247:Y *50:6 23.6214 
2 *50:6 *50:8 1.09786 
3 *50:8 *250:A2 30.6643 
4 *50:8 *50:25 34.6607 
5 *50:25 *254:A4 23 
6 *50:6 *50:40 38.845 
7 *50:40 *249:A2 23 
*END

*D_NET *51 0.00311195
*CONN
*I *264:A I *D sky130_fd_sc_hd__and3_1
*I *260:A I *D sky130_fd_sc_hd__and3_1
*I *254:B1 I *D sky130_fd_sc_hd__o41a_1
*I *253:B I *D sky130_fd_sc_hd__and3b_1
*I *249:B1 I *D sky130_fd_sc_hd__o21ai_1
*I *248:Y O *D sky130_fd_sc_hd__nor2_1
*CAP
1 *264:A 0.000101392
2 *260:A 0
3 *254:B1 0
4 *253:B 0
5 *249:B1 0
6 *248:Y 0.000163425
7 *51:65 0.000621419
8 *51:50 0.000227982
9 *51:32 0.000212818
10 *51:22 0.000494138
11 *51:10 0.000558312
12 *51:8 0.000732461
13 *264:A *260:B 0
14 *264:A *260:C 0
15 *264:A *264:B 0
16 *51:10 *66:14 0
17 *51:22 *53:14 0
18 *51:22 *66:14 0
19 *51:32 *247:A 0
20 *51:65 *234:A1 0
21 *51:65 *260:B 0
22 *51:65 *260:C 0
23 *51:65 *66:14 0
24 *51:65 *70:8 0
25 *231:B1 *51:50 0
26 *250:A2 *51:32 0
27 *3:17 *51:8 0
28 *3:17 *51:65 0
29 *20:8 *51:50 0
30 *28:10 *51:32 0
31 *30:14 *264:A 0
32 *34:14 *51:32 0
33 *34:24 *51:32 0
34 *37:68 *51:65 0
35 *37:87 *51:65 0
36 *40:39 *51:50 0
37 *42:16 *51:8 0
38 *44:31 *51:65 0
39 *50:25 *51:22 0
*RES
1 *248:Y *51:8 41.9564 
2 *51:8 *51:10 1.55357 
3 *51:10 *51:22 23.7207 
4 *51:22 *51:32 35.5307 
5 *51:32 *249:B1 23 
6 *51:22 *253:B 23 
7 *51:10 *51:50 36.1936 
8 *51:50 *254:B1 38 
9 *51:8 *51:65 28.2364 
10 *51:65 *260:A 23 
11 *51:65 *264:A 25.5271 
*END

*D_NET *52 0.000527667
*CONN
*I *250:B1 I *D sky130_fd_sc_hd__a21oi_1
*I *249:Y O *D sky130_fd_sc_hd__o21ai_1
*CAP
1 *250:B1 2.56688e-05
2 *249:Y 0.000238165
3 *52:10 0.000263833
4 *52:10 *67:44 0
5 *299:A *52:10 0
6 *20:16 *52:10 0
7 *27:8 *52:10 0
8 *34:14 *52:10 0
9 *50:40 *52:10 0
*RES
1 *249:Y *52:10 44.2143 
2 *52:10 *250:B1 38.6214 
*END

*D_NET *53 0.000547036
*CONN
*I *253:C I *D sky130_fd_sc_hd__and3b_1
*I *251:X O *D sky130_fd_sc_hd__a31o_1
*CAP
1 *253:C 2.56688e-05
2 *251:X 0.000247849
3 *53:14 0.000273518
4 *28:10 *53:14 0
5 *51:22 *53:14 0
*RES
1 *251:X *53:14 45.2914 
2 *53:14 *253:C 38.6214 
*END

*D_NET *54 0.00483247
*CONN
*I *265:B I *D sky130_fd_sc_hd__nand3_1
*I *268:A2 I *D sky130_fd_sc_hd__a31o_1
*I *259:A2 I *D sky130_fd_sc_hd__a21o_1
*I *263:A I *D sky130_fd_sc_hd__nand2_1
*I *258:C I *D sky130_fd_sc_hd__nand3_1
*I *261:A3 I *D sky130_fd_sc_hd__a31o_1
*I *256:B I *D sky130_fd_sc_hd__or2_1
*I *255:B I *D sky130_fd_sc_hd__nand2_1
*I *253:A_N I *D sky130_fd_sc_hd__and3b_1
*I *266:A1 I *D sky130_fd_sc_hd__a21o_1
*I *252:X O *D sky130_fd_sc_hd__and4_2
*CAP
1 *265:B 0
2 *268:A2 0.000180965
3 *259:A2 0.000310935
4 *263:A 0
5 *258:C 0
6 *261:A3 8.55626e-05
7 *256:B 0
8 *255:B 0
9 *253:A_N 0.000163425
10 *266:A1 0.000290936
11 *252:X 7.46371e-05
12 *54:76 0.00034681
13 *54:70 0.000283921
14 *54:63 0.000284496
15 *54:59 0.000680066
16 *54:50 0.000242391
17 *54:35 0.000399897
18 *54:33 0.000480142
19 *54:14 0.000488721
20 *54:12 0.000222463
21 *54:8 0.0002971
22 *253:A_N *228:A 0
23 *253:A_N *247:A 0
24 *253:A_N *247:B 0
25 *259:A2 *259:B1 0
26 *259:A2 *274:CLK 0
27 *259:A2 *297:A 0
28 *259:A2 *66:27 0
29 *259:A2 *70:23 0
30 *259:A2 *84:8 0
31 *259:A2 *98:28 0
32 *259:A2 *100:41 0
33 *261:A3 *259:A1 0
34 *261:A3 *58:12 0
35 *261:A3 *99:34 0
36 *266:A1 *228:A 0
37 *266:A1 *266:A2 0
38 *266:A1 *266:B1 0
39 *266:A1 *64:10 0
40 *266:A1 *97:16 0
41 *268:A2 *65:10 0
42 *268:A2 *101:49 0
43 *54:12 *251:A3 0
44 *54:12 *265:C 0
45 *54:12 *67:18 0
46 *54:33 *228:A 0
47 *54:33 *55:27 0
48 *54:33 *101:49 0
49 *54:35 *228:A 0
50 *54:50 *228:A 0
51 *54:50 *55:12 0
52 *54:50 *55:27 0
53 *54:50 *70:23 0
54 *54:50 *70:25 0
55 *54:59 *70:23 0
56 *54:63 *257:C 0
57 *54:70 *263:B 0
58 *54:76 *264:C 0
59 *54:76 *269:A2 0
60 *54:76 *58:12 0
61 *54:76 *60:8 0
62 *54:76 *61:10 0
63 *54:76 *98:28 0
64 *54:76 *98:74 0
65 *29:10 *54:63 0
66 *30:14 *54:76 0
67 *39:10 *259:A2 0
68 *39:22 *259:A2 0
69 *39:22 *54:50 0
70 *39:22 *54:59 0
71 *40:29 *54:63 0
*RES
1 *252:X *54:8 40.2579 
2 *54:8 *54:12 20.3857 
3 *54:12 *54:14 15 
4 *54:14 *266:A1 45.6436 
5 *54:14 *54:33 20.9243 
6 *54:33 *54:35 2.52714 
7 *54:35 *253:A_N 26.9564 
8 *54:35 *54:50 19.0807 
9 *54:50 *255:B 38 
10 *54:50 *54:59 3.31429 
11 *54:59 *54:63 21.3386 
12 *54:63 *256:B 23 
13 *54:63 *54:70 0.621429 
14 *54:70 *54:76 37.8921 
15 *54:76 *261:A3 25.0714 
16 *54:76 *258:C 23 
17 *54:70 *263:A 23 
18 *54:59 *259:A2 47.1557 
19 *54:33 *268:A2 27.4536 
20 *54:12 *265:B 23 
*END

*D_NET *55 0.00131561
*CONN
*I *269:C1 I *D sky130_fd_sc_hd__o211a_1
*I *267:A I *D sky130_fd_sc_hd__and3_1
*I *257:A I *D sky130_fd_sc_hd__and3_1
*I *254:X O *D sky130_fd_sc_hd__o41a_1
*CAP
1 *269:C1 2.41714e-05
2 *267:A 0
3 *257:A 0
4 *254:X 8.4707e-05
5 *55:27 0.000249239
6 *55:21 0.000428065
7 *55:12 0.000145032
8 *55:6 0.000384393
9 *55:6 *255:A 0
10 *55:6 *56:10 0
11 *55:12 *255:A 0
12 *55:12 *61:12 0
13 *55:21 *255:A 0
14 *55:21 *269:A2 0
15 *55:27 *228:A 0
16 *55:27 *61:12 0
17 *55:27 *64:10 0
18 *55:27 *65:10 0
19 *55:27 *101:32 0
20 *55:27 *101:49 0
21 *39:10 *55:12 0
22 *39:22 *55:12 0
23 *40:29 *269:C1 0
24 *40:29 *55:12 0
25 *40:29 *55:21 0
26 *54:33 *55:27 0
27 *54:50 *55:12 0
28 *54:50 *55:27 0
*RES
1 *254:X *55:6 25.0507 
2 *55:6 *55:12 34.3707 
3 *55:12 *257:A 23 
4 *55:6 *55:21 3.85286 
5 *55:21 *55:27 37.8921 
6 *55:27 *267:A 23 
7 *55:21 *269:C1 23.6214 
*END

*D_NET *56 0.000248954
*CONN
*I *257:B I *D sky130_fd_sc_hd__and3_1
*I *255:Y O *D sky130_fd_sc_hd__nand2_1
*CAP
1 *257:B 0
2 *255:Y 0.000124477
3 *56:10 0.000124477
4 *56:10 *255:A 0
5 *40:29 *56:10 0
6 *55:6 *56:10 0
*RES
1 *255:Y *56:10 41.2521 
2 *56:10 *257:B 38 
*END

*D_NET *57 0.000155724
*CONN