*SPEF "ieee 1481-1999"
*DESIGN "top"
*DATE "12:13:00 Friday April 12, 2024"
*VENDOR "The OpenROAD Project"
*PROGRAM "OpenROAD"
*VERSION "0889970d1790a2617e69f253221b8bd7626e51dc"
*DESIGN_FLOW "NAME_SCOPE LOCAL" "PIN_CAP NONE"
*DIVIDER /
*DELIMITER :
*BUS_DELIMITER []
*T_UNIT 1 NS
*C_UNIT 1 PF
*R_UNIT 1 OHM
*L_UNIT 1 HENRY

*NAME_MAP
*3 clk
*4 count_out[0]
*5 count_out[1]
*6 count_out[2]
*7 count_out[3]
*8 count_out[4]
*9 count_out[5]
*10 count_out[6]
*11 data_in
*12 ready
*13 rst
*14 running
*15 start
*16 temp_reset
*17 _000_
*18 _001_
*19 _002_
*20 _003_
*21 _004_
*22 _005_
*23 _006_
*24 _007_
*25 _008_
*26 _009_
*27 _010_
*28 _011_
*29 _012_
*30 _013_
*31 _014_
*32 _015_
*33 _016_
*34 _017_
*35 _018_
*36 _019_
*37 _020_
*38 _021_
*39 _022_
*40 _023_
*41 _024_
*42 _025_
*43 _026_
*44 _027_
*45 _028_
*46 _029_
*47 _030_
*48 _031_
*49 _032_
*50 _033_
*51 _034_
*52 _035_
*53 _036_
*54 _037_
*55 _038_
*56 _039_
*57 _040_
*58 _041_
*59 _042_
*60 _043_
*61 _044_
*62 _045_
*63 _046_
*64 _047_
*65 _048_
*66 clknet_0_clk
*67 clknet_1_0__leaf_clk
*68 clknet_1_1__leaf_clk
*69 controller_inst\.clear
*70 data_counter_inst\.inc
*71 data_edge_detector_inst\.input_buffer\[0\]
*72 data_edge_detector_inst\.input_buffer\[1\]
*73 data_edge_detector_inst\.reset_counter\[0\]
*74 data_edge_detector_inst\.reset_counter\[1\]
*75 data_edge_detector_inst\.state\[0\]
*76 net1
*77 net10
*78 net11
*79 net12
*80 net13
*81 net14
*82 net15
*83 net16
*84 net17
*85 net18
*86 net19
*87 net2
*88 net20
*89 net21
*90 net22
*91 net23
*92 net24
*93 net25
*94 net26
*95 net3
*96 net4
*97 net5
*98 net6
*99 net7
*100 net8
*101 net9
*102 FILLER_0_0_3
*103 FILLER_0_0_52
*104 FILLER_0_0_63
*105 FILLER_0_0_75
*106 FILLER_0_0_81
*107 FILLER_0_10_10
*108 FILLER_0_10_29
*109 FILLER_0_10_3
*110 FILLER_0_10_52
*111 FILLER_0_10_64
*112 FILLER_0_10_76
*113 FILLER_0_11_22
*114 FILLER_0_11_31
*115 FILLER_0_11_35
*116 FILLER_0_11_73
*117 FILLER_0_11_81
*118 FILLER_0_12_27
*119 FILLER_0_12_29
*120 FILLER_0_12_3
*121 FILLER_0_12_35
*122 FILLER_0_12_68
*123 FILLER_0_12_80
*124 FILLER_0_13_15
*125 FILLER_0_13_27
*126 FILLER_0_13_29
*127 FILLER_0_13_3
*128 FILLER_0_13_41
*129 FILLER_0_13_53
*130 FILLER_0_13_71
*131 FILLER_0_13_79
*132 FILLER_0_1_11
*133 FILLER_0_1_3
*134 FILLER_0_1_78
*135 FILLER_0_2_15
*136 FILLER_0_2_19
*137 FILLER_0_2_3
*138 FILLER_0_2_33
*139 FILLER_0_2_55
*140 FILLER_0_2_67
*141 FILLER_0_2_75
*142 FILLER_0_3_15
*143 FILLER_0_3_21
*144 FILLER_0_3_26
*145 FILLER_0_3_3
*146 FILLER_0_3_34
*147 FILLER_0_3_48
*148 FILLER_0_3_57
*149 FILLER_0_3_69
*150 FILLER_0_3_81
*151 FILLER_0_4_19
*152 FILLER_0_4_27
*153 FILLER_0_4_29
*154 FILLER_0_4_51
*155 FILLER_0_4_57
*156 FILLER_0_5_30
*157 FILLER_0_5_50
*158 FILLER_0_5_81
*159 FILLER_0_6_25
*160 FILLER_0_6_29
*161 FILLER_0_6_33
*162 FILLER_0_6_65
*163 FILLER_0_6_73
*164 FILLER_0_7_12
*165 FILLER_0_7_22
*166 FILLER_0_7_47
*167 FILLER_0_7_55
*168 FILLER_0_7_67
*169 FILLER_0_7_75
*170 FILLER_0_8_21
*171 FILLER_0_8_29
*172 FILLER_0_8_3
*173 FILLER_0_9_17
*174 FILLER_0_9_60
*175 FILLER_0_9_7
*176 FILLER_0_9_80
*177 PHY_EDGE_ROW_0_Left_14
*178 PHY_EDGE_ROW_0_Right_0
*179 PHY_EDGE_ROW_10_Left_24
*180 PHY_EDGE_ROW_10_Right_10
*181 PHY_EDGE_ROW_11_Left_25
*182 PHY_EDGE_ROW_11_Right_11
*183 PHY_EDGE_ROW_12_Left_26
*184 PHY_EDGE_ROW_12_Right_12
*185 PHY_EDGE_ROW_13_Left_27
*186 PHY_EDGE_ROW_13_Right_13
*187 PHY_EDGE_ROW_1_Left_15
*188 PHY_EDGE_ROW_1_Right_1
*189 PHY_EDGE_ROW_2_Left_16
*190 PHY_EDGE_ROW_2_Right_2
*191 PHY_EDGE_ROW_3_Left_17
*192 PHY_EDGE_ROW_3_Right_3
*193 PHY_EDGE_ROW_4_Left_18
*194 PHY_EDGE_ROW_4_Right_4
*195 PHY_EDGE_ROW_5_Left_19
*196 PHY_EDGE_ROW_5_Right_5
*197 PHY_EDGE_ROW_6_Left_20
*198 PHY_EDGE_ROW_6_Right_6
*199 PHY_EDGE_ROW_7_Left_21
*200 PHY_EDGE_ROW_7_Right_7
*201 PHY_EDGE_ROW_8_Left_22
*202 PHY_EDGE_ROW_8_Right_8
*203 PHY_EDGE_ROW_9_Left_23
*204 PHY_EDGE_ROW_9_Right_9
*205 TAP_TAPCELL_ROW_0_28
*206 TAP_TAPCELL_ROW_0_29
*207 TAP_TAPCELL_ROW_10_39
*208 TAP_TAPCELL_ROW_11_40
*209 TAP_TAPCELL_ROW_12_41
*210 TAP_TAPCELL_ROW_13_42
*211 TAP_TAPCELL_ROW_13_43
*212 TAP_TAPCELL_ROW_1_30
*213 TAP_TAPCELL_ROW_2_31
*214 TAP_TAPCELL_ROW_3_32
*215 TAP_TAPCELL_ROW_4_33
*216 TAP_TAPCELL_ROW_5_34
*217 TAP_TAPCELL_ROW_6_35
*218 TAP_TAPCELL_ROW_7_36
*219 TAP_TAPCELL_ROW_8_37
*220 TAP_TAPCELL_ROW_9_38
*221 _049_
*222 _050_
*223 _051_
*224 _052_
*225 _053_
*226 _054_
*227 _055_
*228 _056_
*229 _057_
*230 _058_
*231 _059_
*232 _060_
*233 _061_
*234 _062_
*235 _063_
*236 _064_
*237 _065_
*238 _066_
*239 _067_
*240 _068_
*241 _069_
*242 _070_
*243 _071_
*244 _072_
*245 _073_
*246 _074_
*247 _075_
*248 _076_
*249 _077_
*250 _078_
*251 _079_
*252 _080_
*253 _081_
*254 _082_
*255 _083_
*256 _084_
*257 _085_
*258 _086_
*259 _087_
*260 _088_
*261 _089_
*262 _090_
*263 _091_
*264 _092_
*265 _093_
*266 _094_
*267 _095_
*268 _096_
*269 _097_
*270 _098_
*271 _099_
*272 _100_
*273 _101_
*274 _102_
*275 _103_
*276 _104_
*277 _105_
*278 _106_
*279 _107_
*280 _108_
*281 _109_
*282 _110_
*283 _111_
*284 _112_
*285 _113_
*286 _114_
*287 clkbuf_0_clk
*288 clkbuf_1_0__f_clk
*289 clkbuf_1_1__f_clk
*290 hold1
*291 hold10
*292 hold11
*293 hold12
*294 hold13
*295 hold2
*296 hold3
*297 hold4
*298 hold5
*299 hold6
*300 hold7
*301 hold8
*302 hold9
*303 input1
*304 input2
*305 input3
*306 output10
*307 output11
*308 output12
*309 output13
*310 output4
*311 output5
*312 output6
*313 output7
*314 output8
*315 output9

*PORTS
clk I
count_out[0] O
count_out[1] O
count_out[2] O
count_out[3] O
count_out[4] O
count_out[5] O
count_out[6] O
data_in I
ready O
rst I
running O
start I
temp_reset O

*D_NET *3 0.00264582
*CONN
*P clk I
*I *287:A I *D sky130_fd_sc_hd__clkbuf_16
*CAP
1 clk 0.00132291
2 *287:A 0.00132291
3 *287:A *232:B1 0
4 *287:A *234:A2 0
5 *287:A *245:A2 0
6 *287:A *275:D 0
7 *287:A *304:A 0
8 *287:A *37:68 0
9 *287:A *49:14 0
10 *287:A *51:8 0
11 *287:A *51:65 0
12 *287:A *80:21 0
*RES
1 clk *287:A 31.8266 
*END

*D_NET *4 0.000738124
*CONN
*P count_out[0] O
*I *310:X O *D sky130_fd_sc_hd__buf_2
*CAP
1 count_out[0] 0.000369062
2 *310:X 0.000369062
3 count_out[0] *310:A 0
4 count_out[0] *20:16 0
5 count_out[0] *79:32 0
6 count_out[0] *96:19 0
*RES
1 *310:X count_out[0] 22.8714 
*END

*D_NET *5 0.000606834
*CONN
*P count_out[1] O
*I *311:X O *D sky130_fd_sc_hd__buf_2
*CAP
1 count_out[1] 0.000303417
2 *311:X 0.000303417
*RES
1 *311:X count_out[1] 21.7643 
*END

*D_NET *6 0.000618652
*CONN
*P count_out[2] O
*I *312:X O *D sky130_fd_sc_hd__buf_2
*CAP
1 count_out[2] 0.000309326
2 *312:X 0.000309326
3 count_out[2] count_out[3] 0
4 count_out[2] *99:8 0
*RES
1 *312:X count_out[2] 21.7657 
*END

*D_NET *7 0.000338891
*CONN
*P count_out[3] O
*I *313:X O *D sky130_fd_sc_hd__buf_2
*CAP
1 count_out[3] 0.000169446
2 *313:X 0.000169446
3 count_out[3] count_out[4] 0
4 count_out[2] count_out[3] 0
*RES
1 *313:X count_out[3] 18.1229 
*END

*D_NET *8 0.000338857
*CONN
*P count_out[4] O
*I *314:X O *D sky130_fd_sc_hd__buf_2
*CAP
1 count_out[4] 0.000169428
2 *314:X 0.000169428
3 count_out[4] count_out[6] 0
4 count_out[3] count_out[4] 0
*RES
1 *314:X count_out[4] 18.1229 
*END

*D_NET *9 0.000385518
*CONN
*P count_out[5] O
*I *315:X O *D sky130_fd_sc_hd__buf_2
*CAP
1 count_out[5] 0.000192759
2 *315:X 0.000192759
3 count_out[5] count_out[6] 0
*RES
1 *315:X count_out[5] 18.73 
*END

*D_NET *10 0.000715909
*CONN
*P count_out[6] O
*I *306:X O *D sky130_fd_sc_hd__buf_2
*CAP
1 count_out[6] 0.000357955
2 *306:X 0.000357955
3 count_out[6] *306:A 0
4 count_out[4] count_out[6] 0
5 count_out[5] count_out[6] 0
*RES
1 *306:X count_out[6] 21.4468 
*END

*D_NET *11 0.000776016
*CONN
*P data_in I
*I *303:A I *D sky130_fd_sc_hd__clkbuf_1
*CAP
1 data_in 0.000388008
2 *303:A 0.000388008
3 *303:A ready 0
4 *303:A *304:A 0
5 *303:A *305:A 0
6 *303:A *307:A 0
*RES
1 data_in *303:A 28.1951 
*END

*D_NET *12 0.000794452
*CONN
*P ready O
*I *307:X O *D sky130_fd_sc_hd__buf_2
*CAP
1 ready 0.000397226
2 *307:X 0.000397226
3 ready *225:A 0
4 ready *305:A 0
5 ready *307:A 0
6 ready *78:10 0
7 *303:A ready 0
*RES
1 *307:X ready 23.6592 
*END

*D_NET *13 0.000558623
*CONN
*P rst I
*I *304:A I *D sky130_fd_sc_hd__clkbuf_2
*CAP
1 rst 0.000279311
2 *304:A 0.000279311
3 *287:A *304:A 0
4 *303:A *304:A 0
*RES
1 rst *304:A 20.0405 
*END

*D_NET *14 0.000823424
*CONN
*P running O
*I *308:X O *D sky130_fd_sc_hd__buf_2
*CAP
1 running 0.000411712
2 *308:X 0.000411712
3 running *20:16 0
4 running *79:21 0
*RES
1 *308:X running 23.9429 
*END

*D_NET *15 0.00103324
*CONN
*P start I
*I *305:A I *D sky130_fd_sc_hd__buf_1
*CAP
1 start 0.000516618
2 *305:A 0.000516618
3 *305:A *232:A2 0
4 *305:A *87:37 0
5 ready *305:A 0
6 *303:A *305:A 0
*RES
1 start *305:A 20.0272 
*END

*D_NET *16 0.00140571
*CONN
*P temp_reset O
*I *309:X O *D sky130_fd_sc_hd__clkbuf_4
*CAP
1 temp_reset 0.000702857
2 *309:X 0.000702857
3 temp_reset *300:A 0
4 temp_reset *309:A 0
*RES
1 *309:X temp_reset 30.1393 
*END

*D_NET *17 0.000158007
*CONN
*I *272:D I *D sky130_fd_sc_hd__dfxtp_1
*I *237:X O *D sky130_fd_sc_hd__and3_1
*CAP
1 *272:D 7.90034e-05
2 *237:X 7.90034e-05
3 *272:D *237:C 0
4 *272:D *270:D 0
5 *272:D *272:CLK 0
*RES
1 *237:X *272:D 29.5152 
*END

*D_NET *18 0.000305189
*CONN
*I *275:D I *D sky130_fd_sc_hd__dfxtp_1
*I *238:X O *D sky130_fd_sc_hd__and4b_1
*CAP
1 *275:D 0.000152595
2 *238:X 0.000152595
3 *275:D *244:A2 0
4 *275:D *246:B1 0
5 *275:D *275:CLK 0
6 *275:D *87:12 0
7 *287:A *275:D 0
*RES
1 *238:X *275:D 31.533 
*END

*D_NET *19 0.000442513
*CONN
*I *270:D I *D sky130_fd_sc_hd__dfxtp_1
*I *232:X O *D sky130_fd_sc_hd__a221o_1
*CAP
1 *270:D 0.000221256
2 *232:X 0.000221256
3 *270:D *232:A2 0
4 *270:D *232:B1 0
5 *270:D *232:B2 0
6 *270:D *237:A 0
7 *270:D *237:C 0
8 *270:D *272:CLK 0
9 *272:D *270:D 0
*RES
1 *232:X *270:D 33.0866 
*END

*D_NET *20 0.00212159
*CONN
*I *271:D I *D sky130_fd_sc_hd__dfxtp_1
*I *231:X O *D sky130_fd_sc_hd__o21a_1
*CAP
1 *271:D 0
2 *231:X 0.0010608
3 *20:16 0.0010608
4 *20:16 *230:B1 0
5 *20:16 *250:A1 0
6 *20:16 *250:B1 0
7 *20:16 *251:B1 0
8 *20:16 *254:B1 0
9 *20:16 *271:CLK 0
10 *20:16 *272:CLK 0
11 *20:16 *308:A 0
12 *20:16 *40:39 0
13 *20:16 *67:44 0
14 *20:16 *69:8 0
15 *20:16 *79:21 0
16 *20:16 *79:32 0
17 *20:16 *79:56 0
18 *20:16 *96:10 0
19 *20:16 *96:23 0
20 count_out[0] *20:16 0
21 running *20:16 0
*RES
1 *231:X *20:16 42.7152 
2 *20:16 *271:D 9.3 
*END

*D_NET *21 0.000377081
*CONN
*I *273:D I *D sky130_fd_sc_hd__dfxtp_1
*I *236:X O *D sky130_fd_sc_hd__a311o_1
*CAP
1 *273:D 0.000188541
2 *236:X 0.000188541
3 *273:D *279:D 0
4 *273:D *68:55 0
5 *273:D *68:69 0
*RES
1 *236:X *273:D 31.8009 
*END

*D_NET *22 0.000169951
*CONN
*I *274:D I *D sky130_fd_sc_hd__dfxtp_1
*I *234:X O *D sky130_fd_sc_hd__o21a_1
*CAP
1 *274:D 8.49756e-05
2 *234:X 8.49756e-05
3 *274:D *234:A2 0
4 *274:D *245:B1 0
*RES
1 *234:X *274:D 29.6402 
*END

*D_NET *23 0.000216578
*CONN
*I *276:D I *D sky130_fd_sc_hd__dfxtp_1
*I *240:X O *D sky130_fd_sc_hd__and2_1
*CAP
1 *276:D 0.000108289
2 *240:X 0.000108289
3 *276:D *68:77 0
4 *276:D *71:14 0
5 *276:D *75:10 0
*RES
1 *240:X *276:D 30.2473 
*END

*D_NET *24 0.00017002
*CONN
*I *277:D I *D sky130_fd_sc_hd__dfxtp_1
*I *242:X O *D sky130_fd_sc_hd__and2_1
*CAP
1 *277:D 8.50099e-05
2 *242:X 8.50099e-05
3 *277:D *239:A1 0
*RES
1 *242:X *277:D 29.6402 
*END

*D_NET *25 0.000208773
*CONN
*I *302:A I *D sky130_fd_sc_hd__dlygate4sd3_1
*I *245:X O *D sky130_fd_sc_hd__o211a_1
*CAP
1 *302:A 0.000104386
2 *245:X 0.000104386
3 *302:A *88:12 0
*RES
1 *245:X *302:A 20.7786 
*END

*D_NET *26 0.00103333
*CONN
*I *279:D I *D sky130_fd_sc_hd__dfxtp_1
*I *246:Y O *D sky130_fd_sc_hd__a211oi_1
*CAP
1 *279:D 0.000516664
2 *246:Y 0.000516664
3 *279:D *233:A1 0
4 *279:D *233:A2 0
5 *279:D *236:A3 0
6 *279:D *236:C1 0
7 *279:D *245:C1 0
8 *279:D *246:A2 0
9 *279:D *246:B1 0
10 *279:D *246:C1 0
11 *279:D *44:14 0
12 *273:D *279:D 0
*RES
1 *246:Y *279:D 39.0687 
*END

*D_NET *27 0.000319115
*CONN
*I *299:A I *D sky130_fd_sc_hd__dlygate4sd3_1
*I *250:Y O *D sky130_fd_sc_hd__a21oi_1
*CAP
1 *299:A 0.000159558
2 *250:Y 0.000159558
3 *299:A *250:B1 0
4 *299:A *67:44 0
*RES
1 *250:Y *299:A 31.1357 
*END

*D_NET *28 0.000497882
*CONN
*I *281:D I *D sky130_fd_sc_hd__dfxtp_1
*I *253:X O *D sky130_fd_sc_hd__and3b_1
*CAP
1 *281:D 0.000248941
2 *253:X 0.000248941
3 *281:D *228:B 0
4 *281:D *247:A 0
5 *281:D *249:B1 0
6 *281:D *251:A3 0
7 *281:D *253:C 0
8 *281:D *288:A 0
*RES
1 *253:X *281:D 33.6045 
*END

*D_NET *29 0.00056343
*CONN
*I *282:D I *D sky130_fd_sc_hd__dfxtp_1
*I *257:X O *D sky130_fd_sc_hd__and3_1
*CAP
1 *282:D 0.000281715
2 *257:X 0.000281715
3 *282:D *257:C 0
4 *282:D *263:B 0
5 *282:D *54:63 0
6 *282:D *98:18 0
*RES
1 *257:X *282:D 24.4795 
*END

*D_NET *30 0.000738432
*CONN
*I *283:D I *D sky130_fd_sc_hd__dfxtp_1
*I *260:X O *D sky130_fd_sc_hd__and3_1
*CAP
1 *283:D 0.000369216
2 *260:X 0.000369216
3 *283:D *258:B 0
4 *283:D *260:B 0
5 *283:D *264:A 0
6 *283:D *264:B 0
7 *283:D *264:C 0
8 *283:D *284:CLK 0
9 *283:D *284:D 0
10 *283:D *312:A 0
11 *283:D *54:76 0
12 *283:D *99:56 0
*RES
1 *260:X *283:D 36.3679 
*END

*D_NET *31 0.000219646
*CONN
*I *284:D I *D sky130_fd_sc_hd__dfxtp_1
*I *264:X O *D sky130_fd_sc_hd__and3_1
*CAP
1 *284:D 0.000109823
2 *264:X 0.000109823
3 *284:D *99:23 0
4 *284:D *99:56 0
5 *283:D *284:D 0
*RES
1 *264:X *284:D 30.158 
*END

*D_NET *32 0.000242998
*CONN
*I *285:D I *D sky130_fd_sc_hd__dfxtp_1
*I *267:X O *D sky130_fd_sc_hd__and3_1
*CAP
1 *285:D 0.000121499
2 *267:X 0.000121499
3 *285:D *285:CLK 0
4 *285:D *67:14 0
5 *285:D *67:18 0
6 *285:D *101:8 0
*RES
1 *267:X *285:D 21.2607 
*END

*D_NET *33 0.000156152
*CONN
*I *286:D I *D sky130_fd_sc_hd__dfxtp_1
*I *269:X O *D sky130_fd_sc_hd__o211a_1
*CAP
1 *286:D 7.80759e-05
2 *269:X 7.80759e-05
3 *286:D *286:CLK 0
*RES
1 *269:X *286:D 20.2295 
*END

*D_NET *34 0.00163125
*CONN
*I *249:A1 I *D sky130_fd_sc_hd__o21ai_1
*I *250:A1 I *D sky130_fd_sc_hd__a21oi_1
*I *221:Y O *D sky130_fd_sc_hd__inv_2
*CAP
1 *249:A1 0
2 *250:A1 0.000228753
3 *221:Y 0.000586872
4 *34:14 0.000815625
5 *250:A1 *249:B1 0
6 *250:A1 *250:A2 0
7 *250:A1 *79:56 0
8 *34:14 *228:A 0
9 *34:14 *249:A2 0
10 *34:14 *249:B1 0
11 *34:14 *250:B1 0
12 *34:14 *252:D 0
13 *34:14 *288:A 0
14 *34:14 *70:25 0
15 *34:14 *97:16 0
16 *20:16 *250:A1 0
*RES
1 *221:Y *34:14 31.2464 
2 *34:14 *250:A1 23.4607 
3 *34:14 *249:A1 9.3 
*END

*D_NET *35 0.00143057
*CONN
*I *246:A1 I *D sky130_fd_sc_hd__a211oi_1
*I *222:Y O *D sky130_fd_sc_hd__inv_2
*CAP
1 *246:A1 0.000715287
2 *222:Y 0.000715287
3 *246:A1 *222:A 0
4 *246:A1 *234:A2 0
5 *246:A1 *238:A_N 0
6 *246:A1 *238:D 0
7 *246:A1 *244:B1 0
8 *246:A1 *245:A2 0
9 *246:A1 *246:B1 0
10 *246:A1 *297:A 0
11 *246:A1 *44:14 0
12 *246:A1 *80:21 0
*RES
1 *222:Y *246:A1 43.0107 
*END

*D_NET *36 0.000209595
*CONN
*I *235:A2 I *D sky130_fd_sc_hd__o21a_1
*I *223:Y O *D sky130_fd_sc_hd__inv_2
*CAP
1 *235:A2 0.000104797
2 *223:Y 0.000104797
3 *235:A2 *235:B1 0
4 *235:A2 *236:B1 0
5 *235:A2 *75:10 0
*RES
1 *223:Y *235:A2 29.9929 
*END

*D_NET *37 0.00484054
*CONN
*I *231:B1 I *D sky130_fd_sc_hd__o21a_1
*I *245:B1 I *D sky130_fd_sc_hd__o211a_1
*I *234:B1 I *D sky130_fd_sc_hd__o21a_1
*I *240:A I *D sky130_fd_sc_hd__and2_1
*I *238:D I *D sky130_fd_sc_hd__and4b_1
*I *242:A I *D sky130_fd_sc_hd__and2_1
*I *237:A I *D sky130_fd_sc_hd__and3_1
*I *224:Y O *D sky130_fd_sc_hd__inv_2
*CAP
1 *231:B1 0.000190046
2 *245:B1 0.000521249
3 *234:B1 0
4 *240:A 8.63522e-05
5 *238:D 0.000420754
6 *242:A 0
7 *237:A 0.000136989
8 *224:Y 0
9 *37:68 0.000630618
10 *37:62 0.000695996
11 *37:34 0.000721727
12 *37:25 0.000316788
13 *37:8 0.000481299
14 *37:4 0.000638725
15 *231:B1 *254:B1 0
16 *231:B1 *40:39 0
17 *237:A *232:A1 0
18 *237:A *232:A2 0
19 *237:A *232:B1 0
20 *237:A *239:A1 0
21 *238:D *238:A_N 0
22 *238:D *238:C 0
23 *238:D *87:6 0
24 *238:D *87:55 0
25 *240:A *240:B 0
26 *240:A *71:14 0
27 *245:B1 *222:A 0
28 *245:B1 *234:A1 0
29 *245:B1 *244:B1 0
30 *245:B1 *260:C 0
31 *245:B1 *261:B1 0
32 *245:B1 *289:A 0
33 *245:B1 *51:65 0
34 *245:B1 *80:45 0
35 *245:B1 *98:52 0
36 *37:8 *225:A 0
37 *37:8 *232:B1 0
38 *37:8 *95:6 0
39 *37:25 *239:A1 0
40 *37:25 *241:A1 0
41 *37:25 *87:12 0
42 *37:34 *239:A1 0
43 *37:34 *241:A1 0
44 *37:34 *68:77 0
45 *37:34 *71:14 0
46 *37:62 *232:B1 0
47 *37:62 *288:A 0
48 *37:68 *234:A1 0
49 *37:68 *51:65 0
50 *246:A1 *238:D 0
51 *270:D *237:A 0
52 *274:D *245:B1 0
53 *287:A *37:68 0
*RES
1 *224:Y *37:4 9.3 
2 *37:4 *37:8 9.55357 
3 *37:8 *237:A 16.925 
4 *37:8 *37:25 2.78571 
5 *37:25 *242:A 13.8 
6 *37:25 *37:34 5.58929 
7 *37:34 *238:D 22.5812 
8 *37:34 *240:A 15.9786 
9 *37:4 *37:62 12.8393 
10 *37:62 *37:68 7.28571 
11 *37:68 *234:B1 9.3 
12 *37:68 *245:B1 30.6214 
13 *37:62 *231:B1 18.55 
*END

*D_NET *38 0.00035095
*CONN
*I *232:A1 I *D sky130_fd_sc_hd__a221o_1
*I *225:Y O *D sky130_fd_sc_hd__inv_2
*CAP
1 *232:A1 0.000175475
2 *225:Y 0.000175475
3 *232:A1 *232:A2 0
4 *232:A1 *232:B2 0
5 *232:A1 *239:A1 0
6 *237:A *232:A1 0
*RES
1 *225:Y *232:A1 31.5286 
*END

*D_NET *39 0.00122419
*CONN
*I *229:A I *D sky130_fd_sc_hd__nor3_1
*I *254:A1 I *D sky130_fd_sc_hd__o41a_1
*I *230:A1 I *D sky130_fd_sc_hd__o31a_1
*I *226:X O *D sky130_fd_sc_hd__or3_1
*CAP
1 *229:A 0
2 *254:A1 0
3 *230:A1 7.19795e-05
4 *226:X 0.000173092
5 *39:22 0.000439005
6 *39:10 0.000540118
7 *230:A1 *230:A3 0
8 *230:A1 *231:A2 0
9 *39:10 *257:A 0
10 *39:10 *259:A2 0
11 *39:10 *98:74 0
12 *39:22 *230:A3 0
13 *39:22 *254:A3 0
14 *39:22 *254:A4 0
15 *39:22 *255:A 0
16 *39:22 *257:A 0
17 *39:22 *259:A2 0
18 *39:22 *54:50 0
19 *39:22 *54:59 0
*RES
1 *226:X *39:10 17.7286 
2 *39:10 *39:22 12.875 
3 *39:22 *230:A1 11.0589 
4 *39:22 *254:A1 9.3 
5 *39:10 *229:A 13.8 
*END

*D_NET *40 0.0023487
*CONN
*I *229:B I *D sky130_fd_sc_hd__nor3_1
*I *254:A2 I *D sky130_fd_sc_hd__o41a_1
*I *230:A2 I *D sky130_fd_sc_hd__o31a_1
*I *269:A1 I *D sky130_fd_sc_hd__o211a_1
*I *227:Y O *D sky130_fd_sc_hd__nand2_1
*CAP
1 *229:B 0
2 *254:A2 0
3 *230:A2 0.000312164
4 *269:A1 0
5 *227:Y 0.000228153
6 *40:39 0.000535089
7 *40:29 0.000634031
8 *40:12 0.00063926
9 *230:A2 *230:A3 0
10 *230:A2 *41:8 0
11 *40:12 *227:B 0
12 *40:12 *268:B1 0
13 *40:12 *269:A2 0
14 *40:12 *61:12 0
15 *40:12 *61:14 0
16 *40:12 *67:82 0
17 *40:12 *101:49 0
18 *40:29 *255:A 0
19 *40:29 *257:A 0
20 *40:29 *257:B 0
21 *40:29 *269:A2 0
22 *40:29 *269:C1 0
23 *40:29 *286:CLK 0
24 *40:29 *54:63 0
25 *40:29 *55:21 0
26 *40:39 *254:B1 0
27 *231:B1 *40:39 0
28 *20:16 *40:39 0
*RES
1 *227:Y *40:12 23.6393 
2 *40:12 *269:A1 9.3 
3 *40:12 *40:29 18.0893 
4 *40:29 *40:39 9.89286 
5 *40:39 *230:A2 20.9964 
6 *40:39 *254:A2 13.8 
7 *40:29 *229:B 9.3 
*END

*D_NET *41 0.0011456
*CONN
*I *229:C I *D sky130_fd_sc_hd__nor3_1
*I *254:A3 I *D sky130_fd_sc_hd__o41a_1
*I *230:A3 I *D sky130_fd_sc_hd__o31a_1
*I *228:Y O *D sky130_fd_sc_hd__nand2_1
*CAP
1 *229:C 8.39454e-05
2 *254:A3 0.000105242
3 *230:A3 0.000283212
4 *228:Y 7.47228e-05
5 *41:23 0.000214866
6 *41:8 0.000383614
7 *229:C *70:23 0
8 *254:A3 *254:A4 0
9 *254:A3 *255:A 0
10 *41:8 *249:A2 0
11 *41:8 *70:23 0
12 *41:8 *70:25 0
13 *41:23 *70:23 0
14 *230:A1 *230:A3 0
15 *230:A2 *230:A3 0
16 *230:A2 *41:8 0
17 *39:22 *230:A3 0
18 *39:22 *254:A3 0
*RES
1 *228:Y *41:8 15.7464 
2 *41:8 *230:A3 19.7107 
3 *41:8 *41:23 0.732143 
4 *41:23 *254:A3 15.9964 
5 *41:23 *229:C 16.05 
*END

*D_NET *42 0.00168227
*CONN
*I *232:B1 I *D sky130_fd_sc_hd__a221o_1
*I *229:Y O *D sky130_fd_sc_hd__nor3_1
*CAP
1 *232:B1 0.000841135
2 *229:Y 0.000841135
3 *232:B1 *225:A 0
4 *232:B1 *232:A2 0
5 *232:B1 *232:C1 0
6 *232:B1 *248:B 0
7 *232:B1 *288:A 0
8 *232:B1 *51:8 0
9 *232:B1 *70:23 0
10 *237:A *232:B1 0
11 *270:D *232:B1 0
12 *287:A *232:B1 0
13 *37:8 *232:B1 0
14 *37:62 *232:B1 0
*RES
1 *229:Y *232:B1 45.4214 
*END

*D_NET *43 0.000209526
*CONN
*I *231:A2 I *D sky130_fd_sc_hd__o21a_1
*I *230:X O *D sky130_fd_sc_hd__o31a_1
*CAP
1 *231:A2 0.000104763
2 *230:X 0.000104763
3 *230:A1 *231:A2 0
*RES
1 *230:X *231:A2 29.9929 
*END

*D_NET *44 0.00110186
*CONN
*I *234:A2 I *D sky130_fd_sc_hd__o21a_1
*I *244:A1 I *D sky130_fd_sc_hd__o21ai_1
*I *233:Y O *D sky130_fd_sc_hd__a21boi_1
*CAP
1 *234:A2 0.000330024
2 *244:A1 2.0535e-05
3 *233:Y 0.000200372
4 *44:14 0.000550931
5 *234:A2 *289:A 0
6 *234:A2 *297:A 0
7 *234:A2 *49:14 0
8 *234:A2 *51:65 0
9 *44:14 *233:A2 0
10 *44:14 *238:B 0
11 *44:14 *49:14 0
12 *246:A1 *234:A2 0
13 *246:A1 *44:14 0
14 *274:D *234:A2 0
15 *279:D *44:14 0
16 *287:A *234:A2 0
*RES
1 *233:Y *44:14 23.05 
2 *44:14 *244:A1 9.72857 
3 *44:14 *234:A2 26.3 
*END

*D_NET *45 0.000240176
*CONN
*I *236:C1 I *D sky130_fd_sc_hd__a311o_1
*I *235:X O *D sky130_fd_sc_hd__o21a_1
*CAP
1 *236:C1 0.000120088
2 *235:X 0.000120088
3 *236:C1 *236:B1 0
4 *236:C1 *246:C1 0
5 *279:D *236:C1 0
*RES
1 *235:X *236:C1 30.4929 
*END

*D_NET *46 0.000177504
*CONN
*I *240:B I *D sky130_fd_sc_hd__and2_1
*I *239:X O *D sky130_fd_sc_hd__mux2_1
*CAP
1 *240:B 8.87521e-05
2 *239:X 8.87521e-05
3 *240:B *68:77 0
4 *240:B *87:6 0
5 *240:A *240:B 0
*RES
1 *239:X *240:B 29.7786 
*END

*D_NET *47 0.000239575
*CONN
*I *242:B I *D sky130_fd_sc_hd__and2_1
*I *241:X O *D sky130_fd_sc_hd__mux2_1
*CAP
1 *242:B 0.000119788
2 *241:X 0.000119788
3 *242:B *232:C1 0
4 *242:B *241:A1 0
*RES
1 *241:X *242:B 21.1 
*END

*D_NET *48 0.001121
*CONN
*I *244:A2 I *D sky130_fd_sc_hd__o21ai_1
*I *246:B1 I *D sky130_fd_sc_hd__a211oi_1
*I *243:X O *D sky130_fd_sc_hd__and2b_1
*CAP
1 *244:A2 0.000349934
2 *246:B1 0.000210563
3 *243:X 0
4 *48:4 0.000560498
5 *244:A2 *238:A_N 0
6 *244:A2 *238:C 0
7 *244:A2 *243:A_N 0
8 *244:A2 *243:B 0
9 *244:A2 *274:CLK 0
10 *244:A2 *49:14 0
11 *244:A2 *68:81 0
12 *246:B1 *238:B 0
13 *246:B1 *246:C1 0
14 *246:B1 *80:21 0
15 *246:B1 *87:12 0
16 *246:B1 *87:55 0
17 *246:A1 *246:B1 0
18 *275:D *244:A2 0
19 *275:D *246:B1 0
20 *279:D *246:B1 0
*RES
1 *243:X *48:4 9.3 
2 *48:4 *246:B1 23.4429 
3 *48:4 *244:A2 25.7464 
*END

*D_NET *49 0.00120722
*CONN
*I *245:C1 I *D sky130_fd_sc_hd__o211a_1
*I *246:A2 I *D sky130_fd_sc_hd__a211oi_1
*I *244:Y O *D sky130_fd_sc_hd__o21ai_1
*CAP
1 *245:C1 0.000218527
2 *246:A2 0.000226313
3 *244:Y 0.000158769
4 *49:14 0.000603609
5 *245:C1 *233:A1 0
6 *245:C1 *233:A2 0
7 *246:A2 *233:A1 0
8 *246:A2 *233:A2 0
9 *246:A2 *233:B1_N 0
10 *246:A2 *80:34 0
11 *49:14 *233:A2 0
12 *49:14 *238:C 0
13 *49:14 *80:21 0
14 *234:A2 *49:14 0
15 *244:A2 *49:14 0
16 *279:D *245:C1 0
17 *279:D *246:A2 0
18 *287:A *49:14 0
19 *44:14 *49:14 0
*RES
1 *244:Y *49:14 22.1214 
2 *49:14 *246:A2 13.9607 
3 *49:14 *245:C1 23.1929 
*END

*D_NET *50 0.00178715
*CONN
*I *249:A2 I *D sky130_fd_sc_hd__o21ai_1
*I *254:A4 I *D sky130_fd_sc_hd__o41a_1
*I *250:A2 I *D sky130_fd_sc_hd__a21oi_1
*I *247:Y O *D sky130_fd_sc_hd__nand2_1
*CAP
1 *249:A2 0.000340897
2 *254:A4 0.000171069
3 *250:A2 0.000316582
4 *247:Y 2.26741e-05
5 *50:8 0.000530004
6 *50:6 0.000405924
7 *249:A2 *250:B1 0
8 *249:A2 *288:A 0
9 *250:A2 *247:A 0
10 *250:A2 *247:B 0
11 *250:A2 *249:B1 0
12 *254:A4 *288:A 0
13 *254:A4 *51:22 0
14 *50:6 *247:A 0
15 *50:8 *247:A 0
16 *250:A1 *250:A2 0
17 *254:A3 *254:A4 0
18 *34:14 *249:A2 0
19 *39:22 *254:A4 0
20 *41:8 *249:A2 0
*RES
1 *247:Y *50:6 9.83571 
2 *50:6 *50:8 0.946429 
3 *50:8 *250:A2 15.9071 
4 *50:8 *254:A4 22.3179 
5 *50:6 *249:A2 25.925 
*END

*D_NET *51 0.00311195
*CONN
*I *264:A I *D sky130_fd_sc_hd__and3_1
*I *260:A I *D sky130_fd_sc_hd__and3_1
*I *254:B1 I *D sky130_fd_sc_hd__o41a_1
*I *253:B I *D sky130_fd_sc_hd__and3b_1
*I *249:B1 I *D sky130_fd_sc_hd__o21ai_1
*I *248:Y O *D sky130_fd_sc_hd__nor2_1
*CAP
1 *264:A 0.000101392
2 *260:A 0
3 *254:B1 0.000227982
4 *253:B 0
5 *249:B1 0.000212818
6 *248:Y 0.000163425
7 *51:65 0.000621419
8 *51:22 0.000494138
9 *51:10 0.000558312
10 *51:8 0.000732461
11 *249:B1 *247:A 0
12 *264:A *260:B 0
13 *264:A *260:C 0
14 *264:A *264:B 0
15 *51:10 *288:A 0
16 *51:22 *253:C 0
17 *51:22 *288:A 0
18 *51:65 *234:A1 0
19 *51:65 *260:B 0
20 *51:65 *260:C 0
21 *51:65 *288:A 0
22 *51:65 *70:8 0
23 *231:B1 *254:B1 0
24 *232:B1 *51:8 0
25 *234:A2 *51:65 0
26 *245:B1 *51:65 0
27 *250:A1 *249:B1 0
28 *250:A2 *249:B1 0
29 *254:A4 *51:22 0
30 *281:D *249:B1 0
31 *283:D *264:A 0
32 *287:A *51:8 0
33 *287:A *51:65 0
34 *20:16 *254:B1 0
35 *34:14 *249:B1 0
36 *37:68 *51:65 0
37 *40:39 *254:B1 0
*RES
1 *248:Y *51:8 17.2107 
2 *51:8 *51:10 1.33929 
3 *51:10 *51:22 12.0179 
4 *51:22 *249:B1 23.0679 
5 *51:22 *253:B 9.3 
6 *51:10 *254:B1 28.1393 
7 *51:8 *51:65 15.9107 
8 *51:65 *260:A 9.3 
9 *51:65 *264:A 11.4786 
*END

*D_NET *52 0.000527667
*CONN
*I *250:B1 I *D sky130_fd_sc_hd__a21oi_1
*I *249:Y O *D sky130_fd_sc_hd__o21ai_1
*CAP
1 *250:B1 0.000263833
2 *249:Y 0.000263833
3 *250:B1 *67:44 0
4 *249:A2 *250:B1 0
5 *299:A *250:B1 0
6 *20:16 *250:B1 0
7 *34:14 *250:B1 0
*RES
1 *249:Y *250:B1 33.4929 
*END

*D_NET *53 0.000547036
*CONN
*I *253:C I *D sky130_fd_sc_hd__and3b_1
*I *251:X O *D sky130_fd_sc_hd__a31o_1
*CAP
1 *253:C 0.000273518
2 *251:X 0.000273518
3 *281:D *253:C 0
4 *51:22 *253:C 0
*RES
1 *251:X *253:C 34.4214 
*END

*D_NET *54 0.00483247
*CONN
*I *265:B I *D sky130_fd_sc_hd__nand3_1
*I *268:A2 I *D sky130_fd_sc_hd__a31o_1
*I *259:A2 I *D sky130_fd_sc_hd__a21o_1
*I *263:A I *D sky130_fd_sc_hd__nand2_1
*I *258:C I *D sky130_fd_sc_hd__nand3_1
*I *261:A3 I *D sky130_fd_sc_hd__a31o_1
*I *256:B I *D sky130_fd_sc_hd__or2_1
*I *255:B I *D sky130_fd_sc_hd__nand2_1
*I *253:A_N I *D sky130_fd_sc_hd__and3b_1
*I *266:A1 I *D sky130_fd_sc_hd__a21o_1
*I *252:X O *D sky130_fd_sc_hd__and4_2
*CAP
1 *265:B 0
2 *268:A2 0.000180965
3 *259:A2 0.000310935
4 *263:A 0
5 *258:C 0
6 *261:A3 8.55626e-05
7 *256:B 0
8 *255:B 0
9 *253:A_N 0.000163425
10 *266:A1 0.000290936
11 *252:X 0.0002971
12 *54:76 0.00034681
13 *54:70 0.000283921
14 *54:63 0.000284496
15 *54:59 0.000680066
16 *54:50 0.000242391
17 *54:35 0.000399897
18 *54:33 0.000480142
19 *54:14 0.000488721
20 *54:12 0.0002971
21 *253:A_N *228:A 0
22 *253:A_N *247:A 0
23 *253:A_N *247:B 0
24 *259:A2 *234:A1 0
25 *259:A2 *259:B1 0
26 *259:A2 *261:B1 0
27 *259:A2 *274:CLK 0
28 *259:A2 *289:A 0
29 *259:A2 *297:A 0
30 *259:A2 *70:23 0
31 *259:A2 *98:28 0
32 *261:A3 *259:A1 0
33 *261:A3 *260:B 0
34 *261:A3 *99:34 0
35 *266:A1 *228:A 0
36 *266:A1 *266:A2 0
37 *266:A1 *266:B1 0
38 *266:A1 *267:C 0
39 *266:A1 *97:16 0
40 *268:A2 *269:B1 0
41 *268:A2 *101:49 0
42 *54:12 *251:A3 0
43 *54:12 *265:C 0
44 *54:12 *67:18 0
45 *54:33 *228:A 0
46 *54:33 *267:A 0
47 *54:33 *101:49 0
48 *54:35 *228:A 0
49 *54:50 *228:A 0
50 *54:50 *257:A 0
51 *54:50 *267:A 0
52 *54:50 *70:23 0
53 *54:50 *70:25 0
54 *54:59 *70:23 0
55 *54:63 *257:C 0
56 *54:70 *263:B 0
57 *54:76 *260:B 0
58 *54:76 *264:B 0
59 *54:76 *264:C 0
60 *54:76 *269:A2 0
61 *54:76 *61:10 0
62 *54:76 *98:28 0
63 *54:76 *98:74 0
64 *282:D *54:63 0
65 *283:D *54:76 0
66 *39:10 *259:A2 0
67 *39:22 *259:A2 0
68 *39:22 *54:50 0
69 *39:22 *54:59 0
70 *40:29 *54:63 0
*RES
1 *252:X *54:12 24.8893 
2 *54:12 *54:14 4.5 
3 *54:14 *266:A1 20.3893 
4 *54:14 *54:33 9.60714 
5 *54:33 *54:35 2.17857 
6 *54:35 *253:A_N 12.7107 
7 *54:35 *54:50 8.01786 
8 *54:50 *255:B 13.8 
9 *54:50 *54:59 2.85714 
10 *54:59 *54:63 9.96429 
11 *54:63 *256:B 9.3 
12 *54:63 *54:70 0.535714 
13 *54:70 *54:76 15.8036 
14 *54:76 *261:A3 11.0857 
15 *54:76 *258:C 9.3 
16 *54:70 *263:A 9.3 
17 *54:59 *259:A2 21.6929 
18 *54:33 *268:A2 13.1393 
19 *54:12 *265:B 9.3 
*END

*D_NET *55 0.00131561
*CONN
*I *269:C1 I *D sky130_fd_sc_hd__o211a_1
*I *267:A I *D sky130_fd_sc_hd__and3_1
*I *257:A I *D sky130_fd_sc_hd__and3_1
*I *254:X O *D sky130_fd_sc_hd__o41a_1
*CAP
1 *269:C1 2.41714e-05
2 *267:A 0.000249239
3 *257:A 0.000145032
4 *254:X 8.4707e-05
5 *55:21 0.000428065
6 *55:6 0.000384393
7 *257:A *255:A 0
8 *257:A *61:12 0
9 *267:A *228:A 0
10 *267:A *267:C 0
11 *267:A *269:B1 0
12 *267:A *61:12 0
13 *267:A *101:32 0
14 *267:A *101:49 0
15 *55:6 *255:A 0
16 *55:6 *257:B 0
17 *55:21 *255:A 0
18 *55:21 *269:A2 0
19 *39:10 *257:A 0
20 *39:22 *257:A 0
21 *40:29 *257:A 0
22 *40:29 *269:C1 0
23 *40:29 *55:21 0
24 *54:33 *267:A 0
25 *54:50 *257:A 0
26 *54:50 *267:A 0
*RES
1 *254:X *55:6 11.0679 
2 *55:6 *257:A 22.0679 
3 *55:6 *55:21 3.32143 
4 *55:21 *267:A 25.1036 
5 *55:21 *269:C1 9.83571 
*END

*D_NET *56 0.000248954
*CONN
*I *257:B I *D sky130_fd_sc_hd__and3_1
*I *255:Y O *D sky130_fd_sc_hd__nand2_1
*CAP
1 *257:B 0.000124477
2 *255:Y 0.000124477
3 *257:B *255:A 0
4 *40:29 *257:B 0
5 *55:6 *257:B 0
*RES
1 *255:Y *257:B 30.4036 
*END

*D_NET *57 0.000155724
*CONN
*I *257:C I *D sky130_fd_sc_hd__and3_1
*I *256:X O *D sky130_fd_sc_hd__or2_1
*CAP
1 *257:C 7.7862e-05
2 *256:X 7.7862e-05
3 *282:D *257:C 0
4 *54:63 *257:C 0
*RES
1 *256:X *257:C 20.225 
*END

*D_NET *58 0.000522622
*CONN
*I *260:B I *D sky130_fd_sc_hd__and3_1
*I *258:Y O *D sky130_fd_sc_hd__nand3_1
*CAP
1 *260:B 0.000261311
2 *258:Y 0.000261311
3 *260:B *264:B 0
4 *260:B *98:28 0
5 *260:B *98:52 0
6 *260:B *99:34 0
7 *261:A3 *260:B 0
8 *264:A *260:B 0
9 *283:D *260:B 0
10 *51:65 *260:B 0
11 *54:76 *260:B 0
*RES
1 *258:Y *260:B 33.5107 
*END

*D_NET *59 0.000295158
*CONN
*I *260:C I *D sky130_fd_sc_hd__and3_1
*I *259:X O *D sky130_fd_sc_hd__a21o_1
*CAP
1 *260:C 0.000147579
2 *259:X 0.000147579
3 *260:C *261:B1 0
4 *245:B1 *260:C 0
5 *264:A *260:C 0
6 *51:65 *260:C 0
*RES
1 *259:X *260:C 30.8857 
*END

*D_NET *60 0.000528743
*CONN
*I *264:B I *D sky130_fd_sc_hd__and3_1
*I *261:X O *D sky130_fd_sc_hd__a31o_1
*CAP
1 *264:B 0.000264372
2 *261:X 0.000264372
3 *264:B *264:C 0
4 *260:B *264:B 0
5 *264:A *264:B 0
6 *283:D *264:B 0
7 *54:76 *264:B 0
*RES
1 *261:X *264:B 33.6536 
*END

*D_NET *61 0.00185186
*CONN
*I *263:B I *D sky130_fd_sc_hd__nand2_1
*I *268:A3 I *D sky130_fd_sc_hd__a31o_1
*I *265:C I *D sky130_fd_sc_hd__nand3_1
*I *266:A2 I *D sky130_fd_sc_hd__a21o_1
*I *262:X O *D sky130_fd_sc_hd__and3_1
*CAP
1 *263:B 0.000117649
2 *268:A3 0
3 *265:C 0.000206634
4 *266:A2 0.000137779
5 *262:X 0.000118624
6 *61:14 0.000524063
7 *61:12 0.000345244
8 *61:10 0.000401866
9 *265:C *265:A 0
10 *265:C *267:C 0
11 *265:C *285:CLK 0
12 *265:C *67:18 0
13 *266:A2 *266:B1 0
14 *61:10 *255:A 0
15 *61:10 *269:A2 0
16 *61:10 *98:74 0
17 *61:12 *255:A 0
18 *61:12 *269:A2 0
19 *61:12 *269:B1 0
20 *61:14 *67:14 0
21 *61:14 *67:82 0